<?xml version="1.0" encoding="UTF-8"?>

<!-- generated on 2023-07-28 14:30:33 by Eclipse SUMO duarouter Version 1.15.0
<configuration xmlns:xsi="http://www.w3.org/2001/XMLSchema-instance" xsi:noNamespaceSchemaLocation="http://sumo.dlr.de/xsd/duarouterConfiguration.xsd">

    <input>
        <net-file value="SimpleRandom.net.xml"/>
        <route-files value="bus.trips.xml"/>
    </input>

    <output>
        <output-file value="bus.rou.xml"/>
    </output>

    <report>
        <ignore-errors value="true"/>
    </report>

</configuration>
-->

<routes xmlns:xsi="http://www.w3.org/2001/XMLSchema-instance" xsi:noNamespaceSchemaLocation="http://sumo.dlr.de/xsd/routes_file.xsd">
    <vType id="bus" maxSpeed="27.80" vClass="bus"/>
    <vehicle id="bus0" type="bus" depart="0.00">
        <route edges="1391 -1388 -533 -365 -344 -125 -19 -9 11 -11"/>
    </vehicle>
    <vehicle id="bus1" type="bus" depart="1.00">
        <route edges="-325 -38 -17 25 -25"/>
    </vehicle>
    <vehicle id="bus2" type="bus" depart="2.00">
        <route edges="1775 -1771 1769"/>
    </vehicle>
    <vehicle id="bus3" type="bus" depart="3.00">
        <route edges="592 674 -837 -732 -625 639 876 -1359"/>
    </vehicle>
    <vehicle id="bus4" type="bus" depart="4.00">
        <route edges="-614 -579 -383 -128 -25 17 116 -116"/>
    </vehicle>
    <vehicle id="bus5" type="bus" depart="5.00">
        <route edges="-1773 -1501 -1429 -1363 1359 -876 -639 -319 -117 119"/>
    </vehicle>
    <vehicle id="bus6" type="bus" depart="6.00">
        <route edges="-1093 -1029 -728 -11 3 15 117 319 639 876 -1359 1363 1429 1499 1771 -1775"/>
    </vehicle>
    <vehicle id="bus7" type="bus" depart="7.00">
        <route edges="1427 1447 1535 -876 -639 -319 -117 -15 -3 11 728 1029 1093 1342"/>
    </vehicle>
    <vehicle id="bus8" type="bus" depart="8.00">
        <route edges="-1773 -1501 -1429 1427 1447 -1494 1357 1415"/>
    </vehicle>
    <vehicle id="bus9" type="bus" depart="9.00">
        <route edges="356 -348 -333 679 -870 1029 1093 1342 -1011"/>
    </vehicle>
    <vehicle id="bus10" type="bus" depart="10.00">
        <route edges="349 -344 -125 123 338 523 -1415 -1357 1494 -1447 -1427 1429 1517 1783"/>
    </vehicle>
    <vehicle id="bus11" type="bus" depart="11.00">
        <route edges="-492 -361 -336 338 523 -1415 -1357 1494 -1447 -1427 1429 1517 -1517"/>
    </vehicle>
    <vehicle id="bus12" type="bus" depart="12.00">
        <route edges="698 1027 1199 -1343 -1093 -1005 -612 -577"/>
    </vehicle>
    <vehicle id="bus13" type="bus" depart="13.00">
        <route edges="-1359 1359 -876 -639 -319 -38 -17 25 138 -138"/>
    </vehicle>
    <vehicle id="bus14" type="bus" depart="14.00">
        <route edges="517 -588 589 -1415 -1357 1494 -1447 1431"/>
    </vehicle>
    <vehicle id="bus15" type="bus" depart="15.00">
        <route edges="349 -344 -125 -19 -9 3"/>
    </vehicle>
    <vehicle id="bus16" type="bus" depart="16.00">
        <route edges="1005 -1029 -728 -11 3 15 119 332 592 642 846"/>
    </vehicle>
    <vehicle id="bus17" type="bus" depart="17.00">
        <route edges="-577 577 612 1011 1345"/>
    </vehicle>
    <vehicle id="bus18" type="bus" depart="18.00">
        <route edges="381 349 -344 -125 123 338 523 -1415 1425 1483"/>
    </vehicle>
    <vehicle id="bus19" type="bus" depart="19.00">
        <route edges="535 601 -601 -535 569 1391"/>
    </vehicle>
    <vehicle id="bus20" type="bus" depart="20.00">
        <route edges="1533 -1494 1357 1415 -523 -338 -123"/>
    </vehicle>
    <vehicle id="bus21" type="bus" depart="21.00">
        <route edges="-1775 -1501 -1429 1427 1447 -1494 1357 1415 -523 -338 -123 125 -570 -379"/>
    </vehicle>
    <vehicle id="bus22" type="bus" depart="22.00">
        <route edges="-1342 -1093 -1029 -728 -11 3 13 116 -313"/>
    </vehicle>
    <vehicle id="bus23" type="bus" depart="23.00">
        <route edges="-1373 1359 -876 -639 -319 -117 -15 -3 7 333 348 -356"/>
    </vehicle>
    <vehicle id="bus24" type="bus" depart="24.00">
        <route edges="1388 -1388 -533 535 601 -601"/>
    </vehicle>
    <vehicle id="bus25" type="bus" depart="25.00">
        <route edges="-535 -365 -344 -125 123 338 523 -1415 -1357 1494 -1447 -1427 1429 1501 1773 -1798"/>
    </vehicle>
    <vehicle id="bus26" type="bus" depart="26.00">
        <route edges="-3 11 696"/>
    </vehicle>
    <vehicle id="bus27" type="bus" depart="27.00">
        <route edges="1425 -1425 -1357 1494 -1447 1441"/>
    </vehicle>
    <vehicle id="bus28" type="bus" depart="28.00">
        <route edges="-15 -3 3"/>
    </vehicle>
    <vehicle id="bus29" type="bus" depart="29.00">
        <route edges="-1494 1357 1415 -523 -338 -123 -19 25 128 383 577 608 -614"/>
    </vehicle>
    <vehicle id="bus30" type="bus" depart="30.00">
        <route edges="880 1494 -1447 -1427 1429 1501"/>
    </vehicle>
    <vehicle id="bus31" type="bus" depart="31.00">
        <route edges="1093 -1093 -1029 -728 -11 3 15 117 319 639 876 -1359 1363 1429 1501 1773"/>
    </vehicle>
    <vehicle id="bus32" type="bus" depart="32.00">
        <route edges="504 -505 -338 -123 125 344 -349 349"/>
    </vehicle>
    <vehicle id="bus33" type="bus" depart="33.00">
        <route edges="-1783 -1517 -1429 -1363 1359 -876 -639 -319 -117"/>
    </vehicle>
    <vehicle id="bus34" type="bus" depart="34.00">
        <route edges="-356 356 -348"/>
    </vehicle>
    <vehicle id="bus35" type="bus" depart="35.00">
        <route edges="-1769 -1499 -1429 -1363 1359 -876 -639 -319 -117 -15 -3 7"/>
    </vehicle>
    <vehicle id="bus36" type="bus" depart="36.00">
        <route edges="579 -579 -383 -128 -25 17 38 325 588 -517"/>
    </vehicle>
    <vehicle id="bus37" type="bus" depart="37.00">
        <route edges="1429 -1429 -1363 1359 -876 -639"/>
    </vehicle>
    <vehicle id="bus38" type="bus" depart="38.00">
        <route edges="614 -608 -577 -383 -128 -25 17 38 319 639 882 -882"/>
    </vehicle>
    <vehicle id="bus39" type="bus" depart="39.00">
        <route edges="-3 3 15 119 330 -330"/>
    </vehicle>
    <vehicle id="bus40" type="bus" depart="40.00">
        <route edges="116 -326 -121 123 338 -338"/>
    </vehicle>
    <vehicle id="bus41" type="bus" depart="41.00">
        <route edges="125 -125 121 326 -313 319 623"/>
    </vehicle>
    <vehicle id="bus42" type="bus" depart="42.00">
        <route edges="-592 -332 -119 -15 13 -17 25 210 -210"/>
    </vehicle>
    <vehicle id="bus43" type="bus" depart="43.00">
        <route edges="9 -9 11 698 1027 1199"/>
    </vehicle>
    <vehicle id="bus44" type="bus" depart="44.00">
        <route edges="-1357 1357 1415 -523 -338 -123"/>
    </vehicle>
    <vehicle id="bus45" type="bus" depart="45.00">
        <route edges="-1388 -533 -365 -344 -125 123 338 523 -1415 -1357 1494"/>
    </vehicle>
    <vehicle id="bus46" type="bus" depart="46.00">
        <route edges="336 -336 -123 -19 -9 11 698 1027 -1027 -698"/>
    </vehicle>
    <vehicle id="bus47" type="bus" depart="47.00">
        <route edges="-126 128 383 577 608 -614"/>
    </vehicle>
    <vehicle id="bus48" type="bus" depart="48.00">
        <route edges="882 -882 -639 -319 -38 -17 25 126"/>
    </vehicle>
    <vehicle id="bus49" type="bus" depart="49.00">
        <route edges="732 -330 -119 117 325 589"/>
    </vehicle>
    <vehicle id="bus50" type="bus" depart="50.00">
        <route edges="-1029 -728 -11 9 19"/>
    </vehicle>
    <vehicle id="bus51" type="bus" depart="51.00">
        <route edges="15 -15 13"/>
    </vehicle>
    <vehicle id="bus52" type="bus" depart="52.00">
        <route edges="-3 3 15 117 319 639 876 -1359 1363 1429 1501"/>
    </vehicle>
    <vehicle id="bus53" type="bus" depart="53.00">
        <route edges="-1391 -569 -365 -344 -125 121 326 -313 319 639 -730"/>
    </vehicle>
    <vehicle id="bus54" type="bus" depart="54.00">
        <route edges="-650 674 -837 -732 -625 623 730"/>
    </vehicle>
    <vehicle id="bus55" type="bus" depart="55.00">
        <route edges="579 613 -585 349 -344"/>
    </vehicle>
    <vehicle id="bus56" type="bus" depart="56.00">
        <route edges="-840 -642 -592 -332 -119 -15 13 -17"/>
    </vehicle>
    <vehicle id="bus57" type="bus" depart="57.00">
        <route edges="614 -608 -577 -383 381 349 365 535 601"/>
    </vehicle>
    <vehicle id="bus58" type="bus" depart="58.00">
        <route edges="-338 338 523 -1415 -1357 1494 -1447 -1427 1429 1501"/>
    </vehicle>
    <vehicle id="bus59" type="bus" depart="59.00">
        <route edges="1343 -1199 -1027 -698 -11 3 15 117 319 639 876 -1359 1363 1429 1517 -1517"/>
    </vehicle>
    <vehicle id="bus60" type="bus" depart="60.00">
        <route edges="3 15 117 319 639 882 1323"/>
    </vehicle>
    <vehicle id="bus61" type="bus" depart="61.00">
        <route edges="330 -330 -119 -15 13 -17 25 126"/>
    </vehicle>
    <vehicle id="bus62" type="bus" depart="62.00">
        <route edges="-1005 -612 -577 -383 381 349 365 533 1388 -1388 -533"/>
    </vehicle>
    <vehicle id="bus63" type="bus" depart="63.00">
        <route edges="-1057 -523 505 597 684"/>
    </vehicle>
    <vehicle id="bus64" type="bus" depart="64.00">
        <route edges="585 -601 -535 533"/>
    </vehicle>
    <vehicle id="bus65" type="bus" depart="65.00">
        <route edges="-348 -138 128 -128"/>
    </vehicle>
    <vehicle id="bus66" type="bus" depart="66.00">
        <route edges="585 -585 -210 -25 -9 11 728"/>
    </vehicle>
    <vehicle id="bus67" type="bus" depart="67.00">
        <route edges="-1345 -1342 -1093 -1029 -728 -11 3 15 117 325 589 1057"/>
    </vehicle>
    <vehicle id="bus68" type="bus" depart="68.00">
        <route edges="-13 13 64 -121 123 336"/>
    </vehicle>
    <vehicle id="bus69" type="bus" depart="69.00">
        <route edges="313 -313 319 639 876 -1535 -1533 -1441"/>
    </vehicle>
    <vehicle id="bus70" type="bus" depart="70.00">
        <route edges="-698 728 1029 1093 1342 1345"/>
    </vehicle>
    <vehicle id="bus71" type="bus" depart="71.00">
        <route edges="-3 9 19 125 344 365 535 601"/>
    </vehicle>
    <vehicle id="bus72" type="bus" depart="72.00">
        <route edges="-614 -579 -383 -128 -25 17 38 319 639 876 -1359 1363 1429 1517 1783 -1883"/>
    </vehicle>
    <vehicle id="bus73" type="bus" depart="73.00">
        <route edges="1011 -1011 1005 -1029 -728 -11 3"/>
    </vehicle>
    <vehicle id="bus74" type="bus" depart="74.00">
        <route edges="-1535 -1494 1357 1415 -523 505 -505"/>
    </vehicle>
    <vehicle id="bus75" type="bus" depart="75.00">
        <route edges="882 1323 1373 1431 1524"/>
    </vehicle>
    <vehicle id="bus76" type="bus" depart="76.00">
        <route edges="-625 -319 313 -326 -121 121"/>
    </vehicle>
    <vehicle id="bus77" type="bus" depart="77.00">
        <route edges="-1404 -1345 -1011 -612 -577 -383 -128 -25"/>
    </vehicle>
    <vehicle id="bus78" type="bus" depart="78.00">
        <route edges="-383 -128 -25 19 123 338 523 -1415 1415"/>
    </vehicle>
    <vehicle id="bus79" type="bus" depart="79.00">
        <route edges="-1783 -1517 -1429 -1363 1359 -876 -639 -319 -38 -17 25 210 -210"/>
    </vehicle>
    <vehicle id="bus80" type="bus" depart="80.00">
        <route edges="-13 15 117 319 639 876 -1359 1363 1429 1499"/>
    </vehicle>
    <vehicle id="bus81" type="bus" depart="81.00">
        <route edges="-1775 -1501 -1429 -1363 1359 -876 -639 639"/>
    </vehicle>
    <vehicle id="bus82" type="bus" depart="82.00">
        <route edges="535 601 -613 614 -608 612 1011 -1342"/>
    </vehicle>
    <vehicle id="bus83" type="bus" depart="83.00">
        <route edges="-1798 -1523 -1429 -1363 1359 -876 -639 -319 -38 -17 17"/>
    </vehicle>
    <vehicle id="bus84" type="bus" depart="84.00">
        <route edges="-1771 -1499 -1429 1427 1447 -1447"/>
    </vehicle>
    <vehicle id="bus85" type="bus" depart="85.00">
        <route edges="642 -642 -592 -332 -119 -15 13 -17 25 138"/>
    </vehicle>
    <vehicle id="bus86" type="bus" depart="86.00">
        <route edges="-696 -11 9 19 123 336 361"/>
    </vehicle>
    <vehicle id="bus87" type="bus" depart="87.00">
        <route edges="349 -344 -125 123 338 523 -1415 -1357 1494 -1447 -1427 1429 1501 1775 -1771"/>
    </vehicle>
    <vehicle id="bus88" type="bus" depart="88.00">
        <route edges="-1363 1359 -876 -639 -319 -117 -15 -3 11 728 -728"/>
    </vehicle>
    <vehicle id="bus89" type="bus" depart="89.00">
        <route edges="-614 614 -608 612 1005"/>
    </vehicle>
    <vehicle id="bus90" type="bus" depart="90.00">
        <route edges="1774 -1523 -1429 1427 1447 -1494 1357 1425 1493 1767"/>
    </vehicle>
    <vehicle id="bus91" type="bus" depart="91.00">
        <route edges="870 -679 333 -138"/>
    </vehicle>
    <vehicle id="bus92" type="bus" depart="92.00">
        <route edges="-597 -505 -338 -123 -19 25 128 383 577 -577"/>
    </vehicle>
    <vehicle id="bus93" type="bus" depart="93.00">
        <route edges="535 601 -585 -210 -25 17 -13 15 119 332 592 -592 -332"/>
    </vehicle>
    <vehicle id="bus94" type="bus" depart="94.00">
        <route edges="-1526 1524 1533 1535 -876 -639 -319 -117 -15 -3 11 696 -870"/>
    </vehicle>
    <vehicle id="bus95" type="bus" depart="95.00">
        <route edges="-614 -579 -383 -128 138 348 -356"/>
    </vehicle>
    <vehicle id="bus96" type="bus" depart="96.00">
        <route edges="-1891 -1526 1524 1533 1535 -876 -639 625 732 837 -674 674"/>
    </vehicle>
    <vehicle id="bus97" type="bus" depart="97.00">
        <route edges="-64 38 325 589"/>
    </vehicle>
    <vehicle id="bus98" type="bus" depart="98.00">
        <route edges="1033 -882 -639 -319 313 -326 -121 125 -125"/>
    </vehicle>
    <vehicle id="bus99" type="bus" depart="99.00">
        <route edges="9 19 125 344 365 569"/>
    </vehicle>
    <vehicle id="bus100" type="bus" depart="100.00">
        <route edges="730 -639 -319 -117 -15 -3 7 679"/>
    </vehicle>
    <vehicle id="bus101" type="bus" depart="101.00">
        <route edges="517 -588 589 -1415 -1357 1494 -1533 -1524 1526 -1526"/>
    </vehicle>
    <vehicle id="bus102" type="bus" depart="102.00">
        <route edges="-730 -623 -319 313 -326 -121 -19"/>
    </vehicle>
    <vehicle id="bus103" type="bus" depart="103.00">
        <route edges="-597 -505 -338 -123 -19 25 128 -128"/>
    </vehicle>
    <vehicle id="bus104" type="bus" depart="104.00">
        <route edges="-577 -383 -128 -25 17 38 319 639 876"/>
    </vehicle>
    <vehicle id="bus105" type="bus" depart="105.00">
        <route edges="-3 9 19 123 336 361"/>
    </vehicle>
    <vehicle id="bus106" type="bus" depart="106.00">
        <route edges="-674 -592 -332 -119 -15 -3 11 698 1027 -1027 -698"/>
    </vehicle>
    <vehicle id="bus107" type="bus" depart="107.00">
        <route edges="698 1027 -1027 -698 -11 3 15 117 319 639 882"/>
    </vehicle>
    <vehicle id="bus108" type="bus" depart="108.00">
        <route edges="1093 -1093 -1029 -728 -11 9 19"/>
    </vehicle>
    <vehicle id="bus109" type="bus" depart="109.00">
        <route edges="-1483 -1425 1415 -523 -338 -123 125 344 -349 -381"/>
    </vehicle>
    <vehicle id="bus110" type="bus" depart="110.00">
        <route edges="730 -639 -319 313 -326 -121 125 344 365 569 1391"/>
    </vehicle>
    <vehicle id="bus111" type="bus" depart="111.00">
        <route edges="1027 -1027 -698 -11 3 13 64 326"/>
    </vehicle>
    <vehicle id="bus112" type="bus" depart="112.00">
        <route edges="-123 -19 -9 11 728 1029 1093 1342 1345 1404"/>
    </vehicle>
    <vehicle id="bus113" type="bus" depart="113.00">
        <route edges="-840 -642 -592 -332 -119 -15 13 -17 25 210 585"/>
    </vehicle>
    <vehicle id="bus114" type="bus" depart="114.00">
        <route edges="-1493 -1425 -1357 -880 -639 625 734"/>
    </vehicle>
    <vehicle id="bus115" type="bus" depart="115.00">
        <route edges="-1342 -1093 -1029 -728 -11 3 15 117 319 639 876 -1359 1363 1429 1517 -1769"/>
    </vehicle>
    <vehicle id="bus116" type="bus" depart="116.00">
        <route edges="128 -128 -25 19 123 338 523 -1415 1425 1493 1767"/>
    </vehicle>
    <vehicle id="bus117" type="bus" depart="117.00">
        <route edges="-1797 -1517 -1429"/>
    </vehicle>
    <vehicle id="bus118" type="bus" depart="118.00">
        <route edges="592 674 -837 -330"/>
    </vehicle>
    <vehicle id="bus119" type="bus" depart="119.00">
        <route edges="128 -128 -25 19 123 338 523 -1415 1425 1483"/>
    </vehicle>
    <vehicle id="bus120" type="bus" depart="120.00">
        <route edges="-613 614 -608 612 1011 1345 1396"/>
    </vehicle>
    <vehicle id="bus121" type="bus" depart="121.00">
        <route edges="-876 880 1357 1415 -523 505 597 686"/>
    </vehicle>
    <vehicle id="bus122" type="bus" depart="122.00">
        <route edges="-17 17 38 319 639 876 -1535 -1533 -1524 1526 1891"/>
    </vehicle>
    <vehicle id="bus123" type="bus" depart="123.00">
        <route edges="-1798 -1523 -1429 -1363 1359 -876 -639"/>
    </vehicle>
    <vehicle id="bus124" type="bus" depart="124.00">
        <route edges="1493 1767 1357 1415 -523 -338 -123 -19 25 128 383 -383"/>
    </vehicle>
    <vehicle id="bus125" type="bus" depart="125.00">
        <route edges="-356 -7 3 15 119 330"/>
    </vehicle>
    <vehicle id="bus126" type="bus" depart="126.00">
        <route edges="-1323 -882"/>
    </vehicle>
    <vehicle id="bus127" type="bus" depart="127.00">
        <route edges="9 17 38 319 639 882"/>
    </vehicle>
    <vehicle id="bus128" type="bus" depart="128.00">
        <route edges="-1323 1323 1363 1429 1517 1783 -1883"/>
    </vehicle>
    <vehicle id="bus129" type="bus" depart="129.00">
        <route edges="-3 9 19 123 338 505 597 686"/>
    </vehicle>
    <vehicle id="bus130" type="bus" depart="130.00">
        <route edges="585 -613 614 -608 612"/>
    </vehicle>
    <vehicle id="bus131" type="bus" depart="131.00">
        <route edges="-535 -365 -344 -125 123 338 523 -1415 -1357 1494 -1447 -1427 1429 1523 -1523"/>
    </vehicle>
    <vehicle id="bus132" type="bus" depart="132.00">
        <route edges="383 -383 -128 -25 17 38 319 639 876 -1359 1363 1429 1523 1798"/>
    </vehicle>
    <vehicle id="bus133" type="bus" depart="133.00">
        <route edges="1345 -1345 -1342 -1093 -1029 -728 -11 3 15 117 319 639 876"/>
    </vehicle>
    <vehicle id="bus134" type="bus" depart="134.00">
        <route edges="1429 -1429 -1363 1359 -876 -639 -319 -117 -15 -3 11 698 1027 -1027"/>
    </vehicle>
    <vehicle id="bus135" type="bus" depart="135.00">
        <route edges="365 -365 -349 -381 383 -383"/>
    </vehicle>
    <vehicle id="bus136" type="bus" depart="136.00">
        <route edges="1441 1533 1535 -876 -639 -319 -117 -15 -3 11 696"/>
    </vehicle>
    <vehicle id="bus137" type="bus" depart="137.00">
        <route edges="-1429 1427 -1427"/>
    </vehicle>
    <vehicle id="bus138" type="bus" depart="138.00">
        <route edges="-1388 -533 -365 -349 -381 383 577 612 1011 1345"/>
    </vehicle>
    <vehicle id="bus139" type="bus" depart="139.00">
        <route edges="-319 319 639 876 -1535 -1447 1431"/>
    </vehicle>
    <vehicle id="bus140" type="bus" depart="140.00">
        <route edges="1769 1783 -1883 1883 -1783"/>
    </vehicle>
    <vehicle id="bus141" type="bus" depart="141.00">
        <route edges="1388 -1388 -533 -365 -344"/>
    </vehicle>
    <vehicle id="bus142" type="bus" depart="142.00">
        <route edges="-730 -623 639"/>
    </vehicle>
    <vehicle id="bus143" type="bus" depart="143.00">
        <route edges="505 -505 523 -1415 -1357 1494 -1447 -1373"/>
    </vehicle>
    <vehicle id="bus144" type="bus" depart="144.00">
        <route edges="-614 -579 -383 -128 138 348 -356"/>
    </vehicle>
    <vehicle id="bus145" type="bus" depart="145.00">
        <route edges="-1005 1005 -1029 870 -679 333 348"/>
    </vehicle>
    <vehicle id="bus146" type="bus" depart="146.00">
        <route edges="1388 -1388 -533 -365 -344 -125 123 338 -338"/>
    </vehicle>
    <vehicle id="bus147" type="bus" depart="147.00">
        <route edges="1798 -1773 -1501 -1429 -1363 1359 -876 -639 -319 -117 -15 -3 11 728 1029 1093 1342 1345"/>
    </vehicle>
    <vehicle id="bus148" type="bus" depart="148.00">
        <route edges="-621 -319 -117 -15 -3 11 698 1027 -1027"/>
    </vehicle>
    <vehicle id="bus149" type="bus" depart="149.00">
        <route edges="-1323 -882 -639 -319 -38 -17 25 128 383 579 613"/>
    </vehicle>
    <vehicle id="bus150" type="bus" depart="150.00">
        <route edges="608 -614 614 -608 612 1005 1093 1342"/>
    </vehicle>
    <vehicle id="bus151" type="bus" depart="151.00">
        <route edges="383 577 612 1011 1345 1396"/>
    </vehicle>
    <vehicle id="bus152" type="bus" depart="152.00">
        <route edges="-1447 1441 -1441"/>
    </vehicle>
    <vehicle id="bus153" type="bus" depart="153.00">
        <route edges="-348 -138 -25 17 38 319 623"/>
    </vehicle>
    <vehicle id="bus154" type="bus" depart="154.00">
        <route edges="338 517 -588 589"/>
    </vehicle>
    <vehicle id="bus155" type="bus" depart="155.00">
        <route edges="601 -585 -210 -25 17 38 319 639 876 -1359 1363 1429 1517 1783 -1883"/>
    </vehicle>
    <vehicle id="bus156" type="bus" depart="156.00">
        <route edges="-1891 -1526 1524 1533 -1494 1357 1415 -523 -338 -123 125 344 365 533 1388 -1388"/>
    </vehicle>
    <vehicle id="bus157" type="bus" depart="157.00">
        <route edges="330 -330 -119 -15 13 -17 25 128 383 579 613"/>
    </vehicle>
    <vehicle id="bus158" type="bus" depart="158.00">
        <route edges="-601 -535 -365 -344 -125 123 338 523 -1415 1425 1483"/>
    </vehicle>
    <vehicle id="bus159" type="bus" depart="159.00">
        <route edges="-1483 -1425 1415 -523 505 597 684"/>
    </vehicle>
    <vehicle id="bus160" type="bus" depart="160.00">
        <route edges="569 1391 -1388 -533 -365 -344 -125 121 326 -313 -117 119 332 592 650 848"/>
    </vehicle>
    <vehicle id="bus161" type="bus" depart="161.00">
        <route edges="356 -348 -138 128 383 577 612"/>
    </vehicle>
    <vehicle id="bus162" type="bus" depart="162.00">
        <route edges="-1093 -1029 -728 -11 3 15 117 313"/>
    </vehicle>
    <vehicle id="bus163" type="bus" depart="163.00">
        <route edges="-381 -128 -25 19 123 338 505 597 684"/>
    </vehicle>
    <vehicle id="bus164" type="bus" depart="164.00">
        <route edges="348 -356 -7 3 15 119 332 592"/>
    </vehicle>
    <vehicle id="bus165" type="bus" depart="165.00">
        <route edges="356 -348 -138 210 349 -344"/>
    </vehicle>
    <vehicle id="bus166" type="bus" depart="166.00">
        <route edges="333 -138 -25 19 123 338 523 -1415"/>
    </vehicle>
    <vehicle id="bus167" type="bus" depart="167.00">
        <route edges="577 -577 -383 -128 -25 17 38 325 588"/>
    </vehicle>
    <vehicle id="bus168" type="bus" depart="168.00">
        <route edges="-1774 -1501 -1429 1427 1447 -1494 1357 1415 -523 -338 336 504"/>
    </vehicle>
    <vehicle id="bus169" type="bus" depart="169.00">
        <route edges="-679 333 -138 126 -570 -492"/>
    </vehicle>
    <vehicle id="bus170" type="bus" depart="170.00">
        <route edges="338 517 -588 -325 -117 -15 -3"/>
    </vehicle>
    <vehicle id="bus171" type="bus" depart="171.00">
        <route edges="-1093 -1029 -728 -11 3 15 117 319 639 876 -1359 1363 1429 1523 1798 -1773"/>
    </vehicle>
    <vehicle id="bus172" type="bus" depart="172.00">
        <route edges="-38 38 -117 119 332 592"/>
    </vehicle>
    <vehicle id="bus173" type="bus" depart="173.00">
        <route edges="730 880 1357 1415 -523 -338 336 361 -361"/>
    </vehicle>
    <vehicle id="bus174" type="bus" depart="174.00">
        <route edges="1415 -589 -325 313 -326 -64"/>
    </vehicle>
    <vehicle id="bus175" type="bus" depart="175.00">
        <route edges="870 -696 -11 3 13"/>
    </vehicle>
    <vehicle id="bus176" type="bus" depart="176.00">
        <route edges="650 848 -848 -650 674 -837 -732 734 1033 1323 1373 -1427"/>
    </vehicle>
    <vehicle id="bus177" type="bus" depart="177.00">
        <route edges="732 -330 -119 -15 13 -17"/>
    </vehicle>
    <vehicle id="bus178" type="bus" depart="178.00">
        <route edges="728 870 -679 333 -138 210 349 -344"/>
    </vehicle>
    <vehicle id="bus179" type="bus" depart="179.00">
        <route edges="-1388 -533 -365 -344 -125 121 326 -313 319 639 -730"/>
    </vehicle>
    <vehicle id="bus180" type="bus" depart="180.00">
        <route edges="1773 -1798 -1523 -1429 -1363 1359 -876 -639 -319 325 588 -517"/>
    </vehicle>
    <vehicle id="bus181" type="bus" depart="181.00">
        <route edges="1342 -1342 1343 -1199 1199"/>
    </vehicle>
    <vehicle id="bus182" type="bus" depart="182.00">
        <route edges="-579 -383 381 349 365 569 1391"/>
    </vehicle>
    <vehicle id="bus183" type="bus" depart="183.00">
        <route edges="-19 17 38 319 639 876 -1359 1363 1429 1523 1882"/>
    </vehicle>
    <vehicle id="bus184" type="bus" depart="184.00">
        <route edges="-1005 1005 -1029 870 -679 679"/>
    </vehicle>
    <vehicle id="bus185" type="bus" depart="185.00">
        <route edges="1011 -1011 1005 -1029 -728 -11 9 19"/>
    </vehicle>
    <vehicle id="bus186" type="bus" depart="186.00">
        <route edges="1798 -1773 -1501 -1429 -1363 1359 -876 -639 -319 -38 -17 17"/>
    </vehicle>
    <vehicle id="bus187" type="bus" depart="187.00">
        <route edges="-533 -365 -349 -381 383 577 612 1011 -1342"/>
    </vehicle>
    <vehicle id="bus188" type="bus" depart="188.00">
        <route edges="1447 -1494 1357 1415 -523 -338 -123 125 344 365 533 1388 -1391 -569"/>
    </vehicle>
    <vehicle id="bus189" type="bus" depart="189.00">
        <route edges="-356 333 -138 128 383 579"/>
    </vehicle>
    <vehicle id="bus190" type="bus" depart="190.00">
        <route edges="1769 -1517 -1429 -1363 1359 -876 -639 -319 -38 -17 25 128 383 -383"/>
    </vehicle>
    <vehicle id="bus191" type="bus" depart="191.00">
        <route edges="-349 -210 -25 17 -13 15 119 332 592 650 848 -848 -650"/>
    </vehicle>
    <vehicle id="bus192" type="bus" depart="192.00">
        <route edges="-597 -505 -338 -123 125 344 -349 -381"/>
    </vehicle>
    <vehicle id="bus193" type="bus" depart="193.00">
        <route edges="-1425 1415 -523 -338 -123 -19 -9 11 698 1027 -1027 -698"/>
    </vehicle>
    <vehicle id="bus194" type="bus" depart="194.00">
        <route edges="650 848 -848 -650 674 -837 -732 734 1033 1323 1363 1429 1499 1769"/>
    </vehicle>
    <vehicle id="bus195" type="bus" depart="195.00">
        <route edges="608 -614 613 -601 -535 533 1388 1464"/>
    </vehicle>
    <vehicle id="bus196" type="bus" depart="196.00">
        <route edges="-338 -123 -19 -9 11 728 1029 1093 1343"/>
    </vehicle>
    <vehicle id="bus197" type="bus" depart="197.00">
        <route edges="-1005 -612 -577 -383 381 349 379 -379"/>
    </vehicle>
    <vehicle id="bus198" type="bus" depart="198.00">
        <route edges="-621 -319 313 -326 -121 125 344 365 569 1391"/>
    </vehicle>
    <vehicle id="bus199" type="bus" depart="199.00">
        <route edges="1429 -1429 -1363 1359 -876 -639 -319 -38 -17 -9"/>
    </vehicle>
    <vehicle id="bus200" type="bus" depart="200.00">
        <route edges="-639 639 876 -1359 1363 1429 1517 1783 -1883"/>
    </vehicle>
    <vehicle id="bus201" type="bus" depart="201.00">
        <route edges="-696 -11 3 15 117 319 625"/>
    </vehicle>
    <vehicle id="bus202" type="bus" depart="202.00">
        <route edges="338 523 -1415 -1357 1494 -1533"/>
    </vehicle>
    <vehicle id="bus203" type="bus" depart="203.00">
        <route edges="-1345 -1342 -1093 -1029 -728 -11 9 19 121"/>
    </vehicle>
    <vehicle id="bus204" type="bus" depart="204.00">
        <route edges="138 -138 126 -570"/>
    </vehicle>
    <vehicle id="bus205" type="bus" depart="205.00">
        <route edges="365 -365 -344 -125 121 326 -313 -117 119 330"/>
    </vehicle>
    <vehicle id="bus206" type="bus" depart="206.00">
        <route edges="1494 1535 -876 -639 -319 -38 -17 25 -25"/>
    </vehicle>
    <vehicle id="bus207" type="bus" depart="207.00">
        <route edges="-1535 1535 -876 -639 -319 -117 -15 -3 11 -11"/>
    </vehicle>
    <vehicle id="bus208" type="bus" depart="208.00">
        <route edges="-1883 -1526 1524 1533 1535 -876 -639 -319 -117 -15 -3 11 698 1027"/>
    </vehicle>
    <vehicle id="bus209" type="bus" depart="209.00">
        <route edges="517 -588 -325 -117 -15 -3 11 698 1027 1199 -1343"/>
    </vehicle>
    <vehicle id="bus210" type="bus" depart="210.00">
        <route edges="-612 -577 -383 -128 -25 19 123 338 523 -1415 -1357 1494"/>
    </vehicle>
    <vehicle id="bus211" type="bus" depart="211.00">
        <route edges="-1532 1526 1883 -1783 1783"/>
    </vehicle>
    <vehicle id="bus212" type="bus" depart="212.00">
        <route edges="-734 -625 -319 313 -326"/>
    </vehicle>
    <vehicle id="bus213" type="bus" depart="213.00">
        <route edges="1429 -1429 -1363 1359 -876 -639 -319 -117 -15 -3 11 728 1029 1093 1342 -1011"/>
    </vehicle>
    <vehicle id="bus214" type="bus" depart="214.00">
        <route edges="19 125 344"/>
    </vehicle>
    <vehicle id="bus215" type="bus" depart="215.00">
        <route edges="-138 138 -333 -7"/>
    </vehicle>
    <vehicle id="bus216" type="bus" depart="216.00">
        <route edges="-1517 -1429 -1363 -1323 -1033 -734 732"/>
    </vehicle>
    <vehicle id="bus217" type="bus" depart="217.00">
        <route edges="-870 870 -679 333 -138 126 -125"/>
    </vehicle>
    <vehicle id="bus218" type="bus" depart="218.00">
        <route edges="-1891 -1526 1524 1533 1535 -876 -639 -319 -38 -17 25 128 383 579"/>
    </vehicle>
    <vehicle id="bus219" type="bus" depart="219.00">
        <route edges="-674 -592 -332 -119 -15 13 -17 25 128 381"/>
    </vehicle>
    <vehicle id="bus220" type="bus" depart="220.00">
        <route edges="1447 1535 -876 876"/>
    </vehicle>
    <vehicle id="bus221" type="bus" depart="221.00">