<additional>
  <busStop id="1" lane="-1027_0" startPos="139" endPos="149" lines="101 102 103 104 105 106 107"/>
  <busStop id="2" lane="-1029_0" startPos="157" endPos="167" lines="101 102 103 104 105 106 107"/>
  <busStop id="3" lane="-1093_0" startPos="0" endPos="10" lines="101 102 103 104 105 106 107"/>
  <busStop id="4" lane="-11_0" startPos="17" endPos="27" lines="101 102 103 104 105 106 107"/>
  <busStop id="5" lane="-117_0" startPos="39" endPos="49" lines="101 102 103 104 105 106 107"/>
  <busStop id="6" lane="-119_0" startPos="35" endPos="45" lines="101 102 103 104 105 106 107"/>
  <busStop id="7" lane="-1201_0" startPos="159" endPos="169" lines="101 102 103 104 105 106 107"/>
  <busStop id="8" lane="-121_0" startPos="31" endPos="41" lines="101 102 103 104 105 106 107"/>
  <busStop id="9" lane="-123_0" startPos="0" endPos="10" lines="101 102 103 104 105 106 107"/>
  <busStop id="10" lane="-125_0" startPos="164" endPos="174" lines="101 102 103 104 105 106 107"/>
  <busStop id="11" lane="-128_0" startPos="41" endPos="51" lines="101 102 103 104 105 106 107"/>
  <busStop id="12" lane="-1342_0" startPos="101" endPos="111" lines="101 102 103 104 105 106 107"/>
  <busStop id="13" lane="-1345_0" startPos="25" endPos="35" lines="101 102 103 104 105 106 107"/>
  <busStop id="14" lane="-1359_0" startPos="195" endPos="205" lines="101 102 103 104 105 106 107"/>
  <busStop id="15" lane="-1363_0" startPos="58" endPos="68" lines="101 102 103 104 105 106 107"/>
  <busStop id="16" lane="-1388_0" startPos="106" endPos="116" lines="101 102 103 104 105 106 107"/>
  <busStop id="17" lane="-1404_0" startPos="124" endPos="134" lines="101 102 103 104 105 106 107"/>
  <busStop id="18" lane="-1415_0" startPos="26" endPos="36" lines="101 102 103 104 105 106 107"/>
  <busStop id="19" lane="-1425_0" startPos="120" endPos="130" lines="101 102 103 104 105 106 107"/>
  <busStop id="20" lane="-1429_0" startPos="7" endPos="17" lines="101 102 103 104 105 106 107"/>
  <busStop id="21" lane="-1464_0" startPos="75" endPos="85" lines="101 102 103 104 105 106 107"/>
  <busStop id="22" lane="-1483_0" startPos="15" endPos="25" lines="101 102 103 104 105 106 107"/>
  <busStop id="23" lane="-15_0" startPos="12" endPos="22" lines="101 102 103 104 105 106 107"/>
  <busStop id="24" lane="-1517_0" startPos="98" endPos="108" lines="101 102 103 104 105 106 107"/>
  <busStop id="25" lane="-1523_0" startPos="6" endPos="16" lines="101 102 103 104 105 106 107"/>
  <busStop id="26" lane="-1524_0" startPos="74" endPos="84" lines="101 102 103 104 105 106 107"/>
  <busStop id="27" lane="-1526_0" startPos="16" endPos="26" lines="101 102 103 104 105 106 107"/>
  <busStop id="28" lane="-1533_0" startPos="26" endPos="36" lines="101 102 103 104 105 106 107"/>
  <busStop id="29" lane="-1535_0" startPos="11" endPos="21" lines="101 102 103 104 105 106 107"/>
  <busStop id="30" lane="-17_0" startPos="112" endPos="122" lines="101 102 103 104 105 106 107"/>
  <busStop id="31" lane="-1797_0" startPos="153" endPos="163" lines="101 102 103 104 105 106 107"/>
  <busStop id="32" lane="-1882_0" startPos="94" endPos="104" lines="101 102 103 104 105 106 107"/>
  <busStop id="33" lane="-1891_0" startPos="163" endPos="173" lines="101 102 103 104 105 106 107"/>
  <busStop id="34" lane="-19_0" startPos="68" endPos="78" lines="101 102 103 104 105 106 107"/>
  <busStop id="35" lane="-25_0" startPos="177" endPos="187" lines="101 102 103 104 105 106 107"/>
  <busStop id="36" lane="-3_0" startPos="162" endPos="172" lines="101 102 103 104 105 106 107"/>
  <busStop id="37" lane="-313_0" startPos="29" endPos="39" lines="101 102 103 104 105 106 107"/>
  <busStop id="38" lane="-319_0" startPos="49" endPos="59" lines="101 102 103 104 105 106 107"/>
  <busStop id="39" lane="-325_0" startPos="80" endPos="90" lines="101 102 103 104 105 106 107"/>
  <busStop id="40" lane="-326_0" startPos="83" endPos="93" lines="101 102 103 104 105 106 107"/>
  <busStop id="41" lane="-332_0" startPos="77" endPos="87" lines="101 102 103 104 105 106 107"/>
  <busStop id="42" lane="-336_0" startPos="55" endPos="65" lines="101 102 103 104 105 106 107"/>
  <busStop id="43" lane="-338_0" startPos="63" endPos="73" lines="101 102 103 104 105 106 107"/>
  <busStop id="44" lane="-344_0" startPos="45" endPos="55" lines="101 102 103 104 105 106 107"/>
  <busStop id="45" lane="-361_0" startPos="139" endPos="149" lines="101 102 103 104 105 106 107"/>
  <busStop id="46" lane="-365_0" startPos="135" endPos="145" lines="101 102 103 104 105 106 107"/>
  <busStop id="47" lane="-38_0" startPos="69" endPos="79" lines="101 102 103 104 105 106 107"/>
  <busStop id="48" lane="-383_0" startPos="59" endPos="69" lines="101 102 103 104 105 106 107"/>
  <busStop id="49" lane="-496_0" startPos="43" endPos="53" lines="101 102 103 104 105 106 107"/>
  <busStop id="50" lane="-505_0" startPos="67" endPos="77" lines="101 102 103 104 105 106 107"/>
  <busStop id="51" lane="-517_0" startPos="141" endPos="151" lines="101 102 103 104 105 106 107"/>
  <busStop id="52" lane="-523_0" startPos="29" endPos="39" lines="101 102 103 104 105 106 107"/>
  <busStop id="53" lane="-533_0" startPos="13" endPos="23" lines="101 102 103 104 105 106 107"/>
  <busStop id="54" lane="-535_0" startPos="48" endPos="58" lines="101 102 103 104 105 106 107"/>
  <busStop id="55" lane="-579_0" startPos="50" endPos="60" lines="101 102 103 104 105 106 107"/>
  <busStop id="56" lane="-588_0" startPos="52" endPos="62" lines="101 102 103 104 105 106 107"/>
  <busStop id="57" lane="-592_0" startPos="78" endPos="88" lines="101 102 103 104 105 106 107"/>
  <busStop id="58" lane="-597_0" startPos="39" endPos="49" lines="101 102 103 104 105 106 107"/>
  <busStop id="59" lane="-601_0" startPos="139" endPos="149" lines="101 102 103 104 105 106 107"/>
  <busStop id="60" lane="-618_0" startPos="71" endPos="81" lines="101 102 103 104 105 106 107"/>
  <busStop id="61" lane="-621_0" startPos="42" endPos="52" lines="101 102 103 104 105 106 107"/>
  <busStop id="62" lane="-639_0" startPos="152" endPos="162" lines="101 102 103 104 105 106 107"/>
  <busStop id="63" lane="-642_0" startPos="66" endPos="76" lines="101 102 103 104 105 106 107"/>
  <busStop id="64" lane="-686_0" startPos="152" endPos="162" lines="101 102 103 104 105 106 107"/>
  <busStop id="65" lane="-698_0" startPos="113" endPos="123" lines="101 102 103 104 105 106 107"/>
  <busStop id="66" lane="-728_0" startPos="106" endPos="116" lines="101 102 103 104 105 106 107"/>
  <busStop id="67" lane="-840_0" startPos="65" endPos="75" lines="101 102 103 104 105 106 107"/>
  <busStop id="68" lane="-867_0" startPos="155" endPos="165" lines="101 102 103 104 105 106 107"/>
  <busStop id="69" lane="-876_0" startPos="11" endPos="21" lines="101 102 103 104 105 106 107"/>
  <busStop id="70" lane="-9_0" startPos="183" endPos="193" lines="101 102 103 104 105 106 107"/>
  <busStop id="71" lane="1027_0" startPos="12" endPos="22" lines="101 102 103 104 105 106 107"/>
  <busStop id="72" lane="1029_0" startPos="8" endPos="18" lines="101 102 103 104 105 106 107"/>
  <busStop id="73" lane="1093_0" startPos="59" endPos="69" lines="101 102 103 104 105 106 107"/>
  <busStop id="74" lane="11_0" startPos="140" endPos="150" lines="101 102 103 104 105 106 107"/>
  <busStop id="75" lane="117_0" startPos="2" endPos="12" lines="101 102 103 104 105 106 107"/>
  <busStop id="76" lane="119_0" startPos="79" endPos="89" lines="101 102 103 104 105 106 107"/>
  <busStop id="77" lane="1201_0" startPos="50" endPos="60" lines="101 102 103 104 105 106 107"/>
  <busStop id="78" lane="121_0" startPos="96" endPos="106" lines="101 102 103 104 105 106 107"/>
  <busStop id="79" lane="123_0" startPos="44" endPos="54" lines="101 102 103 104 105 106 107"/>
  <busStop id="80" lane="125_0" startPos="45" endPos="55" lines="101 102 103 104 105 106 107"/>
  <busStop id="81" lane="128_0" startPos="56" endPos="66" lines="101 102 103 104 105 106 107"/>
  <busStop id="82" lane="1342_0" startPos="16" endPos="26" lines="101 102 103 104 105 106 107"/>
  <busStop id="83" lane="1345_0" startPos="176" endPos="186" lines="101 102 103 104 105 106 107"/>
  <busStop id="84" lane="1359_0" startPos="201" endPos="211" lines="101 102 103 104 105 106 107"/>
  <busStop id="85" lane="1363_0" startPos="90" endPos="100" lines="101 102 103 104 105 106 107"/>
  <busStop id="86" lane="1388_0" startPos="66" endPos="76" lines="101 102 103 104 105 106 107"/>
  <busStop id="87" lane="1404_0" startPos="15" endPos="25" lines="101 102 103 104 105 106 107"/>
  <busStop id="88" lane="1415_0" startPos="112" endPos="122" lines="101 102 103 104 105 106 107"/>
  <busStop id="89" lane="1425_0" startPos="93" endPos="103" lines="101 102 103 104 105 106 107"/>
  <busStop id="90" lane="1429_0" startPos="81" endPos="91" lines="101 102 103 104 105 106 107"/>
  <busStop id="91" lane="1464_0" startPos="49" endPos="59" lines="101 102 103 104 105 106 107"/>
  <busStop id="92" lane="1483_0" startPos="19" endPos="29" lines="101 102 103 104 105 106 107"/>
  <busStop id="93" lane="15_0" startPos="56" endPos="66" lines="101 102 103 104 105 106 107"/>
  <busStop id="94" lane="1517_0" startPos="99" endPos="109" lines="101 102 103 104 105 106 107"/>
  <busStop id="95" lane="1523_0" startPos="21" endPos="31" lines="101 102 103 104 105 106 107"/>
  <busStop id="96" lane="1524_0" startPos="45" endPos="55" lines="101 102 103 104 105 106 107"/>
  <busStop id="97" lane="1526_0" startPos="55" endPos="65" lines="101 102 103 104 105 106 107"/>
  <busStop id="98" lane="1533_0" startPos="31" endPos="41" lines="101 102 103 104 105 106 107"/>
  <busStop id="99" lane="1535_0" startPos="95" endPos="105" lines="101 102 103 104 105 106 107"/>
  <busStop id="100" lane="17_0" startPos="113" endPos="123" lines="101 102 103 104 105 106 107"/>
  <busStop id="101" lane="1797_0" startPos="65" endPos="75" lines="101 102 103 104 105 106 107"/>
  <busStop id="102" lane="1882_0" startPos="163" endPos="173" lines="101 102 103 104 105 106 107"/>
  <busStop id="103" lane="1891_0" startPos="34" endPos="44" lines="101 102 103 104 105 106 107"/>
  <busStop id="104" lane="19_0" startPos="29" endPos="39" lines="101 102 103 104 105 106 107"/>
  <busStop id="105" lane="25_0" startPos="183" endPos="193" lines="101 102 103 104 105 106 107"/>
  <busStop id="106" lane="3_0" startPos="40" endPos="50" lines="101 102 103 104 105 106 107"/>
  <busStop id="107" lane="313_0" startPos="63" endPos="73" lines="101 102 103 104 105 106 107"/>
  <busStop id="108" lane="319_0" startPos="96" endPos="106" lines="101 102 103 104 105 106 107"/>
  <busStop id="109" lane="325_0" startPos="139" endPos="149" lines="101 102 103 104 105 106 107"/>
  <busStop id="110" lane="326_0" startPos="22" endPos="32" lines="101 102 103 104 105 106 107"/>
  <busStop id="111" lane="332_0" startPos="61" endPos="71" lines="101 102 103 104 105 106 107"/>
  <busStop id="112" lane="336_0" startPos="68" endPos="78" lines="101 102 103 104 105 106 107"/>
  <busStop id="113" lane="338_0" startPos="21" endPos="31" lines="101 102 103 104 105 106 107"/>
  <busStop id="114" lane="344_0" startPos="29" endPos="39" lines="101 102 103 104 105 106 107"/>
  <busStop id="115" lane="361_0" startPos="22" endPos="32" lines="101 102 103 104 105 106 107"/>
  <busStop id="116" lane="365_0" startPos="79" endPos="89" lines="101 102 103 104 105 106 107"/>
  <busStop id="117" lane="38_0" startPos="23" endPos="33" lines="101 102 103 104 105 106 107"/>
  <busStop id="118" lane="383_0" startPos="38" endPos="48" lines="101 102 103 104 105 106 107"/>
  <busStop id="119" lane="496_0" startPos="62" endPos="72" lines="101 102 103 104 105 106 107"/>
  <busStop id="120" lane="505_0" startPos="178" endPos="188" lines="101 102 103 104 105 106 107"/>
  <busStop id="121" lane="517_0" startPos="97" endPos="107" lines="101 102 103 104 105 106 107"/>
  <busStop id="122" lane="523_0" startPos="154" endPos="164" lines="101 102 103 104 105 106 107"/>
  <busStop id="123" lane="533_0" startPos="16" endPos="26" lines="101 102 103 104 105 106 107"/>
  <busStop id="124" lane="535_0" startPos="4" endPos="14" lines="101 102 103 104 105 106 107"/>
  <busStop id="125" lane="579_0" startPos="22" endPos="32" lines="101 102 103 104 105 106 107"/>
  <busStop id="126" lane="588_0" startPos="83" endPos="93" lines="101 102 103 104 105 106 107"/>
  <busStop id="127" lane="592_0" startPos="85" endPos="95" lines="101 102 103 104 105 106 107"/>
  <busStop id="128" lane="597_0" startPos="81" endPos="91" lines="101 102 103 104 105 106 107"/>
  <busStop id="129" lane="601_0" startPos="28" endPos="38" lines="101 102 103 104 105 106 107"/>
  <busStop id="130" lane="618_0" startPos="36" endPos="46" lines="101 102 103 104 105 106 107"/>
  <busStop id="131" lane="621_0" startPos="9" endPos="19" lines="101 102 103 104 105 106 107"/>
  <busStop id="132" lane="639_0" startPos="113" endPos="123" lines="101 102 103 104 105 106 107"/>
  <busStop id="133" lane="642_0" startPos="129" endPos="139" lines="101 102 103 104 105 106 107"/>
  <busStop id="134" lane="686_0" startPos="103" endPos="113" lines="101 102 103 104 105 106 107"/>
  <busStop id="135" lane="698_0" startPos="20" endPos="30" lines="101 102 103 104 105 106 107"/>
  <busStop id="136" lane="728_0" startPos="35" endPos="45" lines="101 102 103 104 105 106 107"/>
  <busStop id="137" lane="840_0" startPos="34" endPos="44" lines="101 102 103 104 105 106 107"/>
  <busStop id="138" lane="867_0" startPos="65" endPos="75" lines="101 102 103 104 105 106 107"/>
  <busStop id="139" lane="876_0" startPos="21" endPos="31" lines="101 102 103 104 105 106 107"/>
  <busStop id="140" lane="9_0" startPos="127" endPos="137" lines="101 102 103 104 105 106 107"/>
</additional>
