<additional>
  <busStop id="1" lane="-1005_0" startPos="29" endPos="39" lines="101 102 103 104 105 106 107"/>
  <busStop id="2" lane="-1011_0" startPos="159" endPos="169" lines="101 102 103 104 105 106 107"/>
  <busStop id="3" lane="-1027_0" startPos="72" endPos="82" lines="101 102 103 104 105 106 107"/>
  <busStop id="4" lane="-1029_0" startPos="95" endPos="105" lines="101 102 103 104 105 106 107"/>
  <busStop id="5" lane="-1033_0" startPos="33" endPos="43" lines="101 102 103 104 105 106 107"/>
  <busStop id="6" lane="-1057_0" startPos="82" endPos="92" lines="101 102 103 104 105 106 107"/>
  <busStop id="7" lane="-1093_0" startPos="28" endPos="38" lines="101 102 103 104 105 106 107"/>
  <busStop id="8" lane="-11_0" startPos="61" endPos="71" lines="101 102 103 104 105 106 107"/>
  <busStop id="9" lane="-116_0" startPos="19" endPos="29" lines="101 102 103 104 105 106 107"/>
  <busStop id="10" lane="-117_0" startPos="11" endPos="21" lines="101 102 103 104 105 106 107"/>
  <busStop id="11" lane="-119_0" startPos="37" endPos="47" lines="101 102 103 104 105 106 107"/>
  <busStop id="12" lane="-1199_0" startPos="27" endPos="37" lines="101 102 103 104 105 106 107"/>
  <busStop id="13" lane="-1201_0" startPos="51" endPos="61" lines="101 102 103 104 105 106 107"/>
  <busStop id="14" lane="-121_0" startPos="60" endPos="70" lines="101 102 103 104 105 106 107"/>
  <busStop id="15" lane="-123_0" startPos="3" endPos="13" lines="101 102 103 104 105 106 107"/>
  <busStop id="16" lane="-125_0" startPos="108" endPos="118" lines="101 102 103 104 105 106 107"/>
  <busStop id="17" lane="-126_0" startPos="103" endPos="113" lines="101 102 103 104 105 106 107"/>
  <busStop id="18" lane="-128_0" startPos="46" endPos="56" lines="101 102 103 104 105 106 107"/>
  <busStop id="19" lane="-13_0" startPos="12" endPos="22" lines="101 102 103 104 105 106 107"/>
  <busStop id="20" lane="-1323_0" startPos="127" endPos="137" lines="101 102 103 104 105 106 107"/>
  <busStop id="21" lane="-1342_0" startPos="121" endPos="131" lines="101 102 103 104 105 106 107"/>
  <busStop id="22" lane="-1343_0" startPos="71" endPos="81" lines="101 102 103 104 105 106 107"/>
  <busStop id="23" lane="-1345_0" startPos="128" endPos="138" lines="101 102 103 104 105 106 107"/>
  <busStop id="24" lane="-1357_0" startPos="93" endPos="103" lines="101 102 103 104 105 106 107"/>
  <busStop id="25" lane="-1359_0" startPos="87" endPos="97" lines="101 102 103 104 105 106 107"/>
  <busStop id="26" lane="-1363_0" startPos="64" endPos="74" lines="101 102 103 104 105 106 107"/>
  <busStop id="27" lane="-1373_0" startPos="34" endPos="44" lines="101 102 103 104 105 106 107"/>
  <busStop id="28" lane="-138_0" startPos="40" endPos="50" lines="101 102 103 104 105 106 107"/>
  <busStop id="29" lane="-1388_0" startPos="65" endPos="75" lines="101 102 103 104 105 106 107"/>
  <busStop id="30" lane="-1391_0" startPos="75" endPos="85" lines="101 102 103 104 105 106 107"/>
  <busStop id="31" lane="-1396_0" startPos="61" endPos="71" lines="101 102 103 104 105 106 107"/>
  <busStop id="32" lane="-1404_0" startPos="54" endPos="64" lines="101 102 103 104 105 106 107"/>
  <busStop id="33" lane="-1415_0" startPos="89" endPos="99" lines="101 102 103 104 105 106 107"/>
  <busStop id="34" lane="-1425_0" startPos="4" endPos="14" lines="101 102 103 104 105 106 107"/>
  <busStop id="35" lane="-1427_0" startPos="82" endPos="92" lines="101 102 103 104 105 106 107"/>
  <busStop id="36" lane="-1429_0" startPos="68" endPos="78" lines="101 102 103 104 105 106 107"/>
  <busStop id="37" lane="-1431_0" startPos="84" endPos="94" lines="101 102 103 104 105 106 107"/>
  <busStop id="38" lane="-1441_0" startPos="108" endPos="118" lines="101 102 103 104 105 106 107"/>
  <busStop id="39" lane="-1447_0" startPos="82" endPos="92" lines="101 102 103 104 105 106 107"/>
  <busStop id="40" lane="-1464_0" startPos="55" endPos="65" lines="101 102 103 104 105 106 107"/>
  <busStop id="41" lane="-1483_0" startPos="24" endPos="34" lines="101 102 103 104 105 106 107"/>
  <busStop id="42" lane="-1493_0" startPos="107" endPos="117" lines="101 102 103 104 105 106 107"/>
  <busStop id="43" lane="-1494_0" startPos="57" endPos="67" lines="101 102 103 104 105 106 107"/>
  <busStop id="44" lane="-1499_0" startPos="75" endPos="85" lines="101 102 103 104 105 106 107"/>
  <busStop id="45" lane="-15_0" startPos="24" endPos="34" lines="101 102 103 104 105 106 107"/>
  <busStop id="46" lane="-1501_0" startPos="29" endPos="39" lines="101 102 103 104 105 106 107"/>
  <busStop id="47" lane="-1517_0" startPos="90" endPos="100" lines="101 102 103 104 105 106 107"/>
  <busStop id="48" lane="-1523_0" startPos="61" endPos="71" lines="101 102 103 104 105 106 107"/>
  <busStop id="49" lane="-1524_0" startPos="27" endPos="37" lines="101 102 103 104 105 106 107"/>
  <busStop id="50" lane="-1526_0" startPos="86" endPos="96" lines="101 102 103 104 105 106 107"/>
  <busStop id="51" lane="-1532_0" startPos="47" endPos="57" lines="101 102 103 104 105 106 107"/>
  <busStop id="52" lane="-1533_0" startPos="53" endPos="63" lines="101 102 103 104 105 106 107"/>
  <busStop id="53" lane="-1535_0" startPos="21" endPos="31" lines="101 102 103 104 105 106 107"/>
  <busStop id="54" lane="-17_0" startPos="142" endPos="152" lines="101 102 103 104 105 106 107"/>
  <busStop id="55" lane="-1767_0" startPos="36" endPos="46" lines="101 102 103 104 105 106 107"/>
  <busStop id="56" lane="-1769_0" startPos="105" endPos="115" lines="101 102 103 104 105 106 107"/>
  <busStop id="57" lane="-1771_0" startPos="134" endPos="144" lines="101 102 103 104 105 106 107"/>
  <busStop id="58" lane="-1773_0" startPos="66" endPos="76" lines="101 102 103 104 105 106 107"/>
  <busStop id="59" lane="-1774_0" startPos="111" endPos="121" lines="101 102 103 104 105 106 107"/>
  <busStop id="60" lane="-1775_0" startPos="172" endPos="182" lines="101 102 103 104 105 106 107"/>
  <busStop id="61" lane="-1783_0" startPos="49" endPos="59" lines="101 102 103 104 105 106 107"/>
  <busStop id="62" lane="-1797_0" startPos="121" endPos="131" lines="101 102 103 104 105 106 107"/>
  <busStop id="63" lane="-1798_0" startPos="89" endPos="99" lines="101 102 103 104 105 106 107"/>
  <busStop id="64" lane="-1882_0" startPos="115" endPos="125" lines="101 102 103 104 105 106 107"/>
  <busStop id="65" lane="-1883_0" startPos="44" endPos="54" lines="101 102 103 104 105 106 107"/>
  <busStop id="66" lane="-1891_0" startPos="31" endPos="41" lines="101 102 103 104 105 106 107"/>
  <busStop id="67" lane="-19_0" startPos="72" endPos="82" lines="101 102 103 104 105 106 107"/>
  <busStop id="68" lane="-210_0" startPos="43" endPos="53" lines="101 102 103 104 105 106 107"/>
  <busStop id="69" lane="-25_0" startPos="23" endPos="33" lines="101 102 103 104 105 106 107"/>
  <busStop id="70" lane="-3_0" startPos="78" endPos="88" lines="101 102 103 104 105 106 107"/>
  <busStop id="71" lane="-313_0" startPos="108" endPos="118" lines="101 102 103 104 105 106 107"/>
  <busStop id="72" lane="-319_0" startPos="158" endPos="168" lines="101 102 103 104 105 106 107"/>
  <busStop id="73" lane="-325_0" startPos="70" endPos="80" lines="101 102 103 104 105 106 107"/>
  <busStop id="74" lane="-326_0" startPos="6" endPos="16" lines="101 102 103 104 105 106 107"/>
  <busStop id="75" lane="-330_0" startPos="116" endPos="126" lines="101 102 103 104 105 106 107"/>
  <busStop id="76" lane="-332_0" startPos="68" endPos="78" lines="101 102 103 104 105 106 107"/>
  <busStop id="77" lane="-333_0" startPos="122" endPos="132" lines="101 102 103 104 105 106 107"/>
  <busStop id="78" lane="-336_0" startPos="64" endPos="74" lines="101 102 103 104 105 106 107"/>
  <busStop id="79" lane="-338_0" startPos="41" endPos="51" lines="101 102 103 104 105 106 107"/>
  <busStop id="80" lane="-344_0" startPos="73" endPos="83" lines="101 102 103 104 105 106 107"/>
  <busStop id="81" lane="-348_0" startPos="63" endPos="73" lines="101 102 103 104 105 106 107"/>
  <busStop id="82" lane="-349_0" startPos="55" endPos="65" lines="101 102 103 104 105 106 107"/>
  <busStop id="83" lane="-356_0" startPos="9" endPos="19" lines="101 102 103 104 105 106 107"/>
  <busStop id="84" lane="-361_0" startPos="14" endPos="24" lines="101 102 103 104 105 106 107"/>
  <busStop id="85" lane="-365_0" startPos="78" endPos="88" lines="101 102 103 104 105 106 107"/>
  <busStop id="86" lane="-379_0" startPos="105" endPos="115" lines="101 102 103 104 105 106 107"/>
  <busStop id="87" lane="-38_0" startPos="86" endPos="96" lines="101 102 103 104 105 106 107"/>
  <busStop id="88" lane="-381_0" startPos="8" endPos="18" lines="101 102 103 104 105 106 107"/>
  <busStop id="89" lane="-383_0" startPos="69" endPos="79" lines="101 102 103 104 105 106 107"/>
  <busStop id="90" lane="-492_0" startPos="56" endPos="66" lines="101 102 103 104 105 106 107"/>
  <busStop id="91" lane="-496_0" startPos="71" endPos="81" lines="101 102 103 104 105 106 107"/>
  <busStop id="92" lane="-504_0" startPos="53" endPos="63" lines="101 102 103 104 105 106 107"/>
  <busStop id="93" lane="-505_0" startPos="108" endPos="118" lines="101 102 103 104 105 106 107"/>
  <busStop id="94" lane="-517_0" startPos="53" endPos="63" lines="101 102 103 104 105 106 107"/>
  <busStop id="95" lane="-523_0" startPos="138" endPos="148" lines="101 102 103 104 105 106 107"/>
  <busStop id="96" lane="-533_0" startPos="75" endPos="85" lines="101 102 103 104 105 106 107"/>
  <busStop id="97" lane="-535_0" startPos="46" endPos="56" lines="101 102 103 104 105 106 107"/>
  <busStop id="98" lane="-569_0" startPos="67" endPos="77" lines="101 102 103 104 105 106 107"/>
  <busStop id="99" lane="-570_0" startPos="81" endPos="91" lines="101 102 103 104 105 106 107"/>
  <busStop id="100" lane="-577_0" startPos="81" endPos="91" lines="101 102 103 104 105 106 107"/>
  <busStop id="101" lane="-579_0" startPos="19" endPos="29" lines="101 102 103 104 105 106 107"/>
  <busStop id="102" lane="-585_0" startPos="4" endPos="14" lines="101 102 103 104 105 106 107"/>
  <busStop id="103" lane="-588_0" startPos="38" endPos="48" lines="101 102 103 104 105 106 107"/>
  <busStop id="104" lane="-589_0" startPos="66" endPos="76" lines="101 102 103 104 105 106 107"/>
  <busStop id="105" lane="-592_0" startPos="0" endPos="10" lines="101 102 103 104 105 106 107"/>
  <busStop id="106" lane="-597_0" startPos="12" endPos="22" lines="101 102 103 104 105 106 107"/>
  <busStop id="107" lane="-601_0" startPos="55" endPos="65" lines="101 102 103 104 105 106 107"/>
  <busStop id="108" lane="-608_0" startPos="121" endPos="131" lines="101 102 103 104 105 106 107"/>
  <busStop id="109" lane="-612_0" startPos="121" endPos="131" lines="101 102 103 104 105 106 107"/>
  <busStop id="110" lane="-613_0" startPos="65" endPos="75" lines="101 102 103 104 105 106 107"/>
  <busStop id="111" lane="-614_0" startPos="56" endPos="66" lines="101 102 103 104 105 106 107"/>
  <busStop id="112" lane="-618_0" startPos="17" endPos="27" lines="101 102 103 104 105 106 107"/>
  <busStop id="113" lane="-621_0" startPos="42" endPos="52" lines="101 102 103 104 105 106 107"/>
  <busStop id="114" lane="-623_0" startPos="96" endPos="106" lines="101 102 103 104 105 106 107"/>
  <busStop id="115" lane="-625_0" startPos="4" endPos="14" lines="101 102 103 104 105 106 107"/>
  <busStop id="116" lane="-639_0" startPos="36" endPos="46" lines="101 102 103 104 105 106 107"/>
  <busStop id="117" lane="-64_0" startPos="24" endPos="34" lines="101 102 103 104 105 106 107"/>
  <busStop id="118" lane="-642_0" startPos="18" endPos="28" lines="101 102 103 104 105 106 107"/>
  <busStop id="119" lane="-650_0" startPos="35" endPos="45" lines="101 102 103 104 105 106 107"/>
  <busStop id="120" lane="-674_0" startPos="144" endPos="154" lines="101 102 103 104 105 106 107"/>
  <busStop id="121" lane="-679_0" startPos="8" endPos="18" lines="101 102 103 104 105 106 107"/>
  <busStop id="122" lane="-684_0" startPos="99" endPos="109" lines="101 102 103 104 105 106 107"/>
  <busStop id="123" lane="-686_0" startPos="138" endPos="148" lines="101 102 103 104 105 106 107"/>
  <busStop id="124" lane="-696_0" startPos="42" endPos="52" lines="101 102 103 104 105 106 107"/>
  <busStop id="125" lane="-698_0" startPos="22" endPos="32" lines="101 102 103 104 105 106 107"/>
  <busStop id="126" lane="-7_0" startPos="119" endPos="129" lines="101 102 103 104 105 106 107"/>
  <busStop id="127" lane="-728_0" startPos="29" endPos="39" lines="101 102 103 104 105 106 107"/>
  <busStop id="128" lane="-730_0" startPos="4" endPos="14" lines="101 102 103 104 105 106 107"/>
  <busStop id="129" lane="-732_0" startPos="91" endPos="101" lines="101 102 103 104 105 106 107"/>
  <busStop id="130" lane="-734_0" startPos="167" endPos="177" lines="101 102 103 104 105 106 107"/>
  <busStop id="131" lane="-837_0" startPos="84" endPos="94" lines="101 102 103 104 105 106 107"/>
  <busStop id="132" lane="-840_0" startPos="84" endPos="94" lines="101 102 103 104 105 106 107"/>
  <busStop id="133" lane="-846_0" startPos="61" endPos="71" lines="101 102 103 104 105 106 107"/>
  <busStop id="134" lane="-848_0" startPos="4" endPos="14" lines="101 102 103 104 105 106 107"/>
  <busStop id="135" lane="-867_0" startPos="40" endPos="50" lines="101 102 103 104 105 106 107"/>
  <busStop id="136" lane="-870_0" startPos="27" endPos="37" lines="101 102 103 104 105 106 107"/>
  <busStop id="137" lane="-876_0" startPos="75" endPos="85" lines="101 102 103 104 105 106 107"/>
  <busStop id="138" lane="-880_0" startPos="31" endPos="41" lines="101 102 103 104 105 106 107"/>
  <busStop id="139" lane="-882_0" startPos="48" endPos="58" lines="101 102 103 104 105 106 107"/>
  <busStop id="140" lane="-9_0" startPos="85" endPos="95" lines="101 102 103 104 105 106 107"/>
  <busStop id="141" lane="1005_0" startPos="32" endPos="42" lines="101 102 103 104 105 106 107"/>
  <busStop id="142" lane="1011_0" startPos="127" endPos="137" lines="101 102 103 104 105 106 107"/>
  <busStop id="143" lane="1027_0" startPos="98" endPos="108" lines="101 102 103 104 105 106 107"/>
  <busStop id="144" lane="1029_0" startPos="19" endPos="29" lines="101 102 103 104 105 106 107"/>
  <busStop id="145" lane="1033_0" startPos="2" endPos="12" lines="101 102 103 104 105 106 107"/>
  <busStop id="146" lane="1057_0" startPos="125" endPos="135" lines="101 102 103 104 105 106 107"/>
  <busStop id="147" lane="1093_0" startPos="48" endPos="58" lines="101 102 103 104 105 106 107"/>
  <busStop id="148" lane="11_0" startPos="118" endPos="128" lines="101 102 103 104 105 106 107"/>
  <busStop id="149" lane="116_0" startPos="103" endPos="113" lines="101 102 103 104 105 106 107"/>
  <busStop id="150" lane="117_0" startPos="64" endPos="74" lines="101 102 103 104 105 106 107"/>
  <busStop id="151" lane="119_0" startPos="37" endPos="47" lines="101 102 103 104 105 106 107"/>
  <busStop id="152" lane="1199_0" startPos="44" endPos="54" lines="101 102 103 104 105 106 107"/>
  <busStop id="153" lane="1201_0" startPos="21" endPos="31" lines="101 102 103 104 105 106 107"/>
  <busStop id="154" lane="121_0" startPos="166" endPos="176" lines="101 102 103 104 105 106 107"/>
  <busStop id="155" lane="123_0" startPos="66" endPos="76" lines="101 102 103 104 105 106 107"/>
  <busStop id="156" lane="125_0" startPos="80" endPos="90" lines="101 102 103 104 105 106 107"/>
  <busStop id="157" lane="126_0" startPos="21" endPos="31" lines="101 102 103 104 105 106 107"/>
  <busStop id="158" lane="128_0" startPos="62" endPos="72" lines="101 102 103 104 105 106 107"/>
  <busStop id="159" lane="13_0" startPos="16" endPos="26" lines="101 102 103 104 105 106 107"/>
  <busStop id="160" lane="1323_0" startPos="162" endPos="172" lines="101 102 103 104 105 106 107"/>
  <busStop id="161" lane="1342_0" startPos="120" endPos="130" lines="101 102 103 104 105 106 107"/>
  <busStop id="162" lane="1343_0" startPos="76" endPos="86" lines="101 102 103 104 105 106 107"/>
  <busStop id="163" lane="1345_0" startPos="127" endPos="137" lines="101 102 103 104 105 106 107"/>
  <busStop id="164" lane="1357_0" startPos="63" endPos="73" lines="101 102 103 104 105 106 107"/>
  <busStop id="165" lane="1359_0" startPos="108" endPos="118" lines="101 102 103 104 105 106 107"/>
  <busStop id="166" lane="1363_0" startPos="45" endPos="55" lines="101 102 103 104 105 106 107"/>
  <busStop id="167" lane="1373_0" startPos="102" endPos="112" lines="101 102 103 104 105 106 107"/>
  <busStop id="168" lane="138_0" startPos="115" endPos="125" lines="101 102 103 104 105 106 107"/>
  <busStop id="169" lane="1388_0" startPos="3" endPos="13" lines="101 102 103 104 105 106 107"/>
  <busStop id="170" lane="1391_0" startPos="35" endPos="45" lines="101 102 103 104 105 106 107"/>
  <busStop id="171" lane="1396_0" startPos="14" endPos="24" lines="101 102 103 104 105 106 107"/>
  <busStop id="172" lane="1404_0" startPos="23" endPos="33" lines="101 102 103 104 105 106 107"/>
  <busStop id="173" lane="1415_0" startPos="182" endPos="192" lines="101 102 103 104 105 106 107"/>
  <busStop id="174" lane="1425_0" startPos="58" endPos="68" lines="101 102 103 104 105 106 107"/>
  <busStop id="175" lane="1427_0" startPos="111" endPos="121" lines="101 102 103 104 105 106 107"/>
  <busStop id="176" lane="1429_0" startPos="66" endPos="76" lines="101 102 103 104 105 106 107"/>
  <busStop id="177" lane="1431_0" startPos="87" endPos="97" lines="101 102 103 104 105 106 107"/>
  <busStop id="178" lane="1441_0" startPos="124" endPos="134" lines="101 102 103 104 105 106 107"/>
  <busStop id="179" lane="1447_0" startPos="89" endPos="99" lines="101 102 103 104 105 106 107"/>
  <busStop id="180" lane="1464_0" startPos="1" endPos="11" lines="101 102 103 104 105 106 107"/>
  <busStop id="181" lane="1483_0" startPos="17" endPos="27" lines="101 102 103 104 105 106 107"/>
  <busStop id="182" lane="1493_0" startPos="136" endPos="146" lines="101 102 103 104 105 106 107"/>
  <busStop id="183" lane="1494_0" startPos="24" endPos="34" lines="101 102 103 104 105 106 107"/>
  <busStop id="184" lane="1499_0" startPos="33" endPos="43" lines="101 102 103 104 105 106 107"/>
  <busStop id="185" lane="15_0" startPos="32" endPos="42" lines="101 102 103 104 105 106 107"/>
  <busStop id="186" lane="1501_0" startPos="5" endPos="15" lines="101 102 103 104 105 106 107"/>
  <busStop id="187" lane="1517_0" startPos="53" endPos="63" lines="101 102 103 104 105 106 107"/>
  <busStop id="188" lane="1523_0" startPos="71" endPos="81" lines="101 102 103 104 105 106 107"/>
  <busStop id="189" lane="1524_0" startPos="29" endPos="39" lines="101 102 103 104 105 106 107"/>
  <busStop id="190" lane="1526_0" startPos="30" endPos="40" lines="101 102 103 104 105 106 107"/>
  <busStop id="191" lane="1532_0" startPos="29" endPos="39" lines="101 102 103 104 105 106 107"/>
  <busStop id="192" lane="1533_0" startPos="90" endPos="100" lines="101 102 103 104 105 106 107"/>
  <busStop id="193" lane="1535_0" startPos="52" endPos="62" lines="101 102 103 104 105 106 107"/>
  <busStop id="194" lane="17_0" startPos="109" endPos="119" lines="101 102 103 104 105 106 107"/>
  <busStop id="195" lane="1767_0" startPos="33" endPos="43" lines="101 102 103 104 105 106 107"/>
  <busStop id="196" lane="1769_0" startPos="21" endPos="31" lines="101 102 103 104 105 106 107"/>
  <busStop id="197" lane="1771_0" startPos="29" endPos="39" lines="101 102 103 104 105 106 107"/>
  <busStop id="198" lane="1773_0" startPos="75" endPos="85" lines="101 102 103 104 105 106 107"/>
  <busStop id="199" lane="1774_0" startPos="57" endPos="67" lines="101 102 103 104 105 106 107"/>
  <busStop id="200" lane="1775_0" startPos="53" endPos="63" lines="101 102 103 104 105 106 107"/>
  <busStop id="201" lane="1783_0" startPos="6" endPos="16" lines="101 102 103 104 105 106 107"/>
  <busStop id="202" lane="1797_0" startPos="131" endPos="141" lines="101 102 103 104 105 106 107"/>
  <busStop id="203" lane="1798_0" startPos="32" endPos="42" lines="101 102 103 104 105 106 107"/>
  <busStop id="204" lane="1882_0" startPos="31" endPos="41" lines="101 102 103 104 105 106 107"/>
  <busStop id="205" lane="1883_0" startPos="22" endPos="32" lines="101 102 103 104 105 106 107"/>
  <busStop id="206" lane="1891_0" startPos="7" endPos="17" lines="101 102 103 104 105 106 107"/>
  <busStop id="207" lane="19_0" startPos="110" endPos="120" lines="101 102 103 104 105 106 107"/>
  <busStop id="208" lane="210_0" startPos="5" endPos="15" lines="101 102 103 104 105 106 107"/>
  <busStop id="209" lane="25_0" startPos="122" endPos="132" lines="101 102 103 104 105 106 107"/>
  <busStop id="210" lane="3_0" startPos="49" endPos="59" lines="101 102 103 104 105 106 107"/>
  <busStop id="211" lane="313_0" startPos="64" endPos="74" lines="101 102 103 104 105 106 107"/>
  <busStop id="212" lane="319_0" startPos="109" endPos="119" lines="101 102 103 104 105 106 107"/>
  <busStop id="213" lane="325_0" startPos="34" endPos="44" lines="101 102 103 104 105 106 107"/>
  <busStop id="214" lane="326_0" startPos="2" endPos="12" lines="101 102 103 104 105 106 107"/>
  <busStop id="215" lane="330_0" startPos="74" endPos="84" lines="101 102 103 104 105 106 107"/>
  <busStop id="216" lane="332_0" startPos="20" endPos="30" lines="101 102 103 104 105 106 107"/>
  <busStop id="217" lane="333_0" startPos="13" endPos="23" lines="101 102 103 104 105 106 107"/>
  <busStop id="218" lane="336_0" startPos="30" endPos="40" lines="101 102 103 104 105 106 107"/>
  <busStop id="219" lane="338_0" startPos="40" endPos="50" lines="101 102 103 104 105 106 107"/>
  <busStop id="220" lane="344_0" startPos="51" endPos="61" lines="101 102 103 104 105 106 107"/>
  <busStop id="221" lane="348_0" startPos="44" endPos="54" lines="101 102 103 104 105 106 107"/>
  <busStop id="222" lane="349_0" startPos="72" endPos="82" lines="101 102 103 104 105 106 107"/>
  <busStop id="223" lane="356_0" startPos="81" endPos="91" lines="101 102 103 104 105 106 107"/>
  <busStop id="224" lane="361_0" startPos="22" endPos="32" lines="101 102 103 104 105 106 107"/>
  <busStop id="225" lane="365_0" startPos="59" endPos="69" lines="101 102 103 104 105 106 107"/>
  <busStop id="226" lane="379_0" startPos="109" endPos="119" lines="101 102 103 104 105 106 107"/>
  <busStop id="227" lane="38_0" startPos="1" endPos="11" lines="101 102 103 104 105 106 107"/>
  <busStop id="228" lane="381_0" startPos="48" endPos="58" lines="101 102 103 104 105 106 107"/>
  <busStop id="229" lane="383_0" startPos="4" endPos="14" lines="101 102 103 104 105 106 107"/>
  <busStop id="230" lane="492_0" startPos="42" endPos="52" lines="101 102 103 104 105 106 107"/>
  <busStop id="231" lane="496_0" startPos="46" endPos="56" lines="101 102 103 104 105 106 107"/>
  <busStop id="232" lane="504_0" startPos="182" endPos="192" lines="101 102 103 104 105 106 107"/>
  <busStop id="233" lane="505_0" startPos="103" endPos="113" lines="101 102 103 104 105 106 107"/>
  <busStop id="234" lane="517_0" startPos="42" endPos="52" lines="101 102 103 104 105 106 107"/>
  <busStop id="235" lane="523_0" startPos="68" endPos="78" lines="101 102 103 104 105 106 107"/>
  <busStop id="236" lane="533_0" startPos="1" endPos="11" lines="101 102 103 104 105 106 107"/>
  <busStop id="237" lane="535_0" startPos="48" endPos="58" lines="101 102 103 104 105 106 107"/>
  <busStop id="238" lane="569_0" startPos="68" endPos="78" lines="101 102 103 104 105 106 107"/>
  <busStop id="239" lane="570_0" startPos="34" endPos="44" lines="101 102 103 104 105 106 107"/>
  <busStop id="240" lane="577_0" startPos="11" endPos="21" lines="101 102 103 104 105 106 107"/>
  <busStop id="241" lane="579_0" startPos="114" endPos="124" lines="101 102 103 104 105 106 107"/>
  <busStop id="242" lane="585_0" startPos="63" endPos="73" lines="101 102 103 104 105 106 107"/>
  <busStop id="243" lane="588_0" startPos="71" endPos="81" lines="101 102 103 104 105 106 107"/>
  <busStop id="244" lane="589_0" startPos="86" endPos="96" lines="101 102 103 104 105 106 107"/>
  <busStop id="245" lane="592_0" startPos="62" endPos="72" lines="101 102 103 104 105 106 107"/>
  <busStop id="246" lane="597_0" startPos="54" endPos="64" lines="101 102 103 104 105 106 107"/>
  <busStop id="247" lane="601_0" startPos="130" endPos="140" lines="101 102 103 104 105 106 107"/>
  <busStop id="248" lane="608_0" startPos="45" endPos="55" lines="101 102 103 104 105 106 107"/>
  <busStop id="249" lane="612_0" startPos="143" endPos="153" lines="101 102 103 104 105 106 107"/>
  <busStop id="250" lane="613_0" startPos="112" endPos="122" lines="101 102 103 104 105 106 107"/>
  <busStop id="251" lane="614_0" startPos="69" endPos="79" lines="101 102 103 104 105 106 107"/>
  <busStop id="252" lane="618_0" startPos="69" endPos="79" lines="101 102 103 104 105 106 107"/>
  <busStop id="253" lane="621_0" startPos="44" endPos="54" lines="101 102 103 104 105 106 107"/>
  <busStop id="254" lane="623_0" startPos="60" endPos="70" lines="101 102 103 104 105 106 107"/>
  <busStop id="255" lane="625_0" startPos="37" endPos="47" lines="101 102 103 104 105 106 107"/>
  <busStop id="256" lane="639_0" startPos="100" endPos="110" lines="101 102 103 104 105 106 107"/>
  <busStop id="257" lane="64_0" startPos="39" endPos="49" lines="101 102 103 104 105 106 107"/>
  <busStop id="258" lane="642_0" startPos="112" endPos="122" lines="101 102 103 104 105 106 107"/>
  <busStop id="259" lane="650_0" startPos="124" endPos="134" lines="101 102 103 104 105 106 107"/>
  <busStop id="260" lane="674_0" startPos="4" endPos="14" lines="101 102 103 104 105 106 107"/>
  <busStop id="261" lane="679_0" startPos="75" endPos="85" lines="101 102 103 104 105 106 107"/>
  <busStop id="262" lane="684_0" startPos="62" endPos="72" lines="101 102 103 104 105 106 107"/>
  <busStop id="263" lane="686_0" startPos="1" endPos="11" lines="101 102 103 104 105 106 107"/>
  <busStop id="264" lane="696_0" startPos="36" endPos="46" lines="101 102 103 104 105 106 107"/>
  <busStop id="265" lane="698_0" startPos="22" endPos="32" lines="101 102 103 104 105 106 107"/>
  <busStop id="266" lane="7_0" startPos="24" endPos="34" lines="101 102 103 104 105 106 107"/>
  <busStop id="267" lane="728_0" startPos="10" endPos="20" lines="101 102 103 104 105 106 107"/>
  <busStop id="268" lane="730_0" startPos="6" endPos="16" lines="101 102 103 104 105 106 107"/>
  <busStop id="269" lane="732_0" startPos="94" endPos="104" lines="101 102 103 104 105 106 107"/>
  <busStop id="270" lane="734_0" startPos="70" endPos="80" lines="101 102 103 104 105 106 107"/>
  <busStop id="271" lane="837_0" startPos="79" endPos="89" lines="101 102 103 104 105 106 107"/>
  <busStop id="272" lane="840_0" startPos="38" endPos="48" lines="101 102 103 104 105 106 107"/>
  <busStop id="273" lane="846_0" startPos="55" endPos="65" lines="101 102 103 104 105 106 107"/>
  <busStop id="274" lane="848_0" startPos="28" endPos="38" lines="101 102 103 104 105 106 107"/>
  <busStop id="275" lane="867_0" startPos="182" endPos="192" lines="101 102 103 104 105 106 107"/>
  <busStop id="276" lane="870_0" startPos="28" endPos="38" lines="101 102 103 104 105 106 107"/>
  <busStop id="277" lane="876_0" startPos="83" endPos="93" lines="101 102 103 104 105 106 107"/>
  <busStop id="278" lane="880_0" startPos="171" endPos="181" lines="101 102 103 104 105 106 107"/>
  <busStop id="279" lane="882_0" startPos="12" endPos="22" lines="101 102 103 104 105 106 107"/>
  <busStop id="280" lane="9_0" startPos="92" endPos="102" lines="101 102 103 104 105 106 107"/>
</additional>
