<?xml version="1.0" encoding="UTF-8"?>

<!-- generated on 2023-07-28 14:30:27 by Eclipse SUMO duarouter Version 1.15.0
<configuration xmlns:xsi="http://www.w3.org/2001/XMLSchema-instance" xsi:noNamespaceSchemaLocation="http://sumo.dlr.de/xsd/duarouterConfiguration.xsd">

    <input>
        <net-file value="SimpleRandom.net.xml"/>
        <route-files value="car.trips.xml"/>
    </input>

    <output>
        <output-file value="car.rou.xml"/>
    </output>

    <report>
        <ignore-errors value="true"/>
    </report>

</configuration>
-->

<routes xmlns:xsi="http://www.w3.org/2001/XMLSchema-instance" xsi:noNamespaceSchemaLocation="http://sumo.dlr.de/xsd/routes_file.xsd">
    <vehicle id="pass0" depart="0.00">
        <route edges="1391 -1388 -533 -365 -344 -125 -19 -9 11 -11"/>
    </vehicle>
    <vehicle id="pass1" depart="1.00">
        <route edges="-325 -38 -17 25 -25"/>
    </vehicle>
    <vehicle id="pass2" depart="2.00">
        <route edges="1775 -1771 1769"/>
    </vehicle>
    <vehicle id="pass3" depart="3.00">
        <route edges="592 674 -837 -732 -625 639 876 -1359"/>
    </vehicle>
    <vehicle id="pass4" depart="4.00">
        <route edges="-614 -579 -383 -128 -25 17 116 -116"/>
    </vehicle>
    <vehicle id="pass5" depart="5.00">
        <route edges="-1773 -1501 -1429 -1363 1359 -876 -639 -319 -117 119"/>
    </vehicle>
    <vehicle id="pass6" depart="6.00">
        <route edges="-1093 -1029 -728 -11 3 15 117 319 639 876 -1359 1363 1429 1499 1771 -1775"/>
    </vehicle>
    <vehicle id="pass7" depart="7.00">
        <route edges="1427 1447 1535 -876 -639 -319 -117 -15 -3 11 728 1029 1093 1342"/>
    </vehicle>
    <vehicle id="pass8" depart="8.00">
        <route edges="-1773 -1501 -1429 1427 1447 -1494 1357 1415"/>
    </vehicle>
    <vehicle id="pass9" depart="9.00">
        <route edges="356 -348 -333 679 -870 1029 1093 1342 -1011"/>
    </vehicle>
    <vehicle id="pass10" depart="10.00">
        <route edges="349 -344 -125 123 338 523 -1415 -1357 1494 -1447 -1427 1429 1517 1783"/>
    </vehicle>
    <vehicle id="pass11" depart="11.00">
        <route edges="-492 -361 -336 338 523 -1415 -1357 1494 -1447 -1427 1429 1517 -1517"/>
    </vehicle>
    <vehicle id="pass12" depart="12.00">
        <route edges="698 1027 1199 -1343 -1093 -1005 -612 -577"/>
    </vehicle>
    <vehicle id="pass13" depart="13.00">
        <route edges="-1359 1359 -876 -639 -319 -38 -17 25 138 -138"/>
    </vehicle>
    <vehicle id="pass14" depart="14.00">
        <route edges="517 -588 589 -1415 -1357 1494 -1447 1431"/>
    </vehicle>
    <vehicle id="pass15" depart="15.00">
        <route edges="349 -344 -125 -19 -9 3"/>
    </vehicle>
    <vehicle id="pass16" depart="16.00">
        <route edges="1005 -1029 -728 -11 3 15 119 332 592 642 846"/>
    </vehicle>
    <vehicle id="pass17" depart="17.00">
        <route edges="-577 577 612 1011 1345"/>
    </vehicle>
    <vehicle id="pass18" depart="18.00">
        <route edges="381 349 -344 -125 123 338 523 -1415 1425 1483"/>
    </vehicle>
    <vehicle id="pass19" depart="19.00">
        <route edges="535 601 -601 -535 569 1391"/>
    </vehicle>
    <vehicle id="pass20" depart="20.00">
        <route edges="1533 -1494 1357 1415 -523 -338 -123"/>
    </vehicle>
    <vehicle id="pass21" depart="21.00">
        <route edges="-1775 -1501 -1429 1427 1447 -1494 1357 1415 -523 -338 -123 125 -570 -379"/>
    </vehicle>
    <vehicle id="pass22" depart="22.00">
        <route edges="-1342 -1093 -1029 -728 -11 3 13 116 -313"/>
    </vehicle>
    <vehicle id="pass23" depart="23.00">
        <route edges="-1373 1359 -876 -639 -319 -117 -15 -3 7 333 348 -356"/>
    </vehicle>
    <vehicle id="pass24" depart="24.00">
        <route edges="1388 -1388 -533 535 601 -601"/>
    </vehicle>
    <vehicle id="pass25" depart="25.00">
        <route edges="-535 -365 -344 -125 123 338 523 -1415 -1357 1494 -1447 -1427 1429 1501 1773 -1798"/>
    </vehicle>
    <vehicle id="pass26" depart="26.00">
        <route edges="-3 11 696"/>
    </vehicle>
    <vehicle id="pass27" depart="27.00">
        <route edges="1425 -1425 -1357 1494 -1447 1441"/>
    </vehicle>
    <vehicle id="pass28" depart="28.00">
        <route edges="-15 -3 3"/>
    </vehicle>
    <vehicle id="pass29" depart="29.00">
        <route edges="-1494 1357 1415 -523 -338 -123 -19 25 128 383 577 608 -614"/>
    </vehicle>
    <vehicle id="pass30" depart="30.00">
        <route edges="880 1494 -1447 -1427 1429 1501"/>
    </vehicle>
    <vehicle id="pass31" depart="31.00">
        <route edges="1093 -1093 -1029 -728 -11 3 15 117 319 639 876 -1359 1363 1429 1501 1773"/>
    </vehicle>
    <vehicle id="pass32" depart="32.00">
        <route edges="504 -505 -338 -123 125 344 -349 349"/>
    </vehicle>
    <vehicle id="pass33" depart="33.00">
        <route edges="-1783 -1517 -1429 -1363 1359 -876 -639 -319 -117"/>
    </vehicle>
    <vehicle id="pass34" depart="34.00">
        <route edges="-356 356 -348"/>
    </vehicle>
    <vehicle id="pass35" depart="35.00">
        <route edges="-1769 -1499 -1429 -1363 1359 -876 -639 -319 -117 -15 -3 7"/>
    </vehicle>
    <vehicle id="pass36" depart="36.00">
        <route edges="579 -579 -383 -128 -25 17 38 325 588 -517"/>
    </vehicle>
    <vehicle id="pass37" depart="37.00">
        <route edges="1429 -1429 -1363 1359 -876 -639"/>
    </vehicle>
    <vehicle id="pass38" depart="38.00">
        <route edges="614 -608 -577 -383 -128 -25 17 38 319 639 882 -882"/>
    </vehicle>
    <vehicle id="pass39" depart="39.00">
        <route edges="-3 3 15 119 330 -330"/>
    </vehicle>
    <vehicle id="pass40" depart="40.00">
        <route edges="116 -326 -121 123 338 -338"/>
    </vehicle>
    <vehicle id="pass41" depart="41.00">
        <route edges="125 -125 121 326 -313 319 623"/>
    </vehicle>
    <vehicle id="pass42" depart="42.00">
        <route edges="-592 -332 -119 -15 13 -17 25 210 -210"/>
    </vehicle>
    <vehicle id="pass43" depart="43.00">
        <route edges="9 -9 11 698 1027 1199"/>
    </vehicle>
    <vehicle id="pass44" depart="44.00">
        <route edges="-1357 1357 1415 -523 -338 -123"/>
    </vehicle>
    <vehicle id="pass45" depart="45.00">
        <route edges="-1388 -533 -365 -344 -125 123 338 523 -1415 -1357 1494"/>
    </vehicle>
    <vehicle id="pass46" depart="46.00">
        <route edges="336 -336 -123 -19 -9 11 698 1027 -1027 -698"/>
    </vehicle>
    <vehicle id="pass47" depart="47.00">
        <route edges="-126 128 383 577 608 -614"/>
    </vehicle>
    <vehicle id="pass48" depart="48.00">
        <route edges="882 -882 -639 -319 -38 -17 25 126"/>
    </vehicle>
    <vehicle id="pass49" depart="49.00">
        <route edges="732 -330 -119 117 325 589"/>
    </vehicle>
    <vehicle id="pass50" depart="50.00">
        <route edges="-1029 -728 -11 9 19"/>
    </vehicle>
    <vehicle id="pass51" depart="51.00">
        <route edges="15 -15 13"/>
    </vehicle>
    <vehicle id="pass52" depart="52.00">
        <route edges="-3 3 15 117 319 639 876 -1359 1363 1429 1501"/>
    </vehicle>
    <vehicle id="pass53" depart="53.00">
        <route edges="-1391 -569 -365 -344 -125 121 326 -313 319 639 -730"/>
    </vehicle>
    <vehicle id="pass54" depart="54.00">
        <route edges="-650 674 -837 -732 -625 623 730"/>
    </vehicle>
    <vehicle id="pass55" depart="55.00">
        <route edges="579 613 -585 349 -344"/>
    </vehicle>
    <vehicle id="pass56" depart="56.00">
        <route edges="-840 -642 -592 -332 -119 -15 13 -17"/>
    </vehicle>
    <vehicle id="pass57" depart="57.00">
        <route edges="614 -608 -577 -383 381 349 365 535 601"/>
    </vehicle>
    <vehicle id="pass58" depart="58.00">
        <route edges="-338 338 523 -1415 -1357 1494 -1447 -1427 1429 1501"/>
    </vehicle>
    <vehicle id="pass59" depart="59.00">
        <route edges="1343 -1199 -1027 -698 -11 3 15 117 319 639 876 -1359 1363 1429 1517 -1517"/>
    </vehicle>
    <vehicle id="pass60" depart="60.00">
        <route edges="3 15 117 319 639 882 1323"/>
    </vehicle>
    <vehicle id="pass61" depart="61.00">
        <route edges="330 -330 -119 -15 13 -17 25 126"/>
    </vehicle>
    <vehicle id="pass62" depart="62.00">
        <route edges="-1005 -612 -577 -383 381 349 365 533 1388 -1388 -533"/>
    </vehicle>
    <vehicle id="pass63" depart="63.00">
        <route edges="-1057 -523 505 597 684"/>
    </vehicle>
    <vehicle id="pass64" depart="64.00">
        <route edges="585 -601 -535 533"/>
    </vehicle>
    <vehicle id="pass65" depart="65.00">
        <route edges="-348 -138 128 -128"/>
    </vehicle>
    <vehicle id="pass66" depart="66.00">
        <route edges="585 -585 -210 -25 -9 11 728"/>
    </vehicle>
    <vehicle id="pass67" depart="67.00">
        <route edges="-1345 -1342 -1093 -1029 -728 -11 3 15 117 325 589 1057"/>
    </vehicle>
    <vehicle id="pass68" depart="68.00">
        <route edges="-13 13 64 -121 123 336"/>
    </vehicle>
    <vehicle id="pass69" depart="69.00">
        <route edges="313 -313 319 639 876 -1535 -1533 -1441"/>
    </vehicle>
    <vehicle id="pass70" depart="70.00">
        <route edges="-698 728 1029 1093 1342 1345"/>
    </vehicle>
    <vehicle id="pass71" depart="71.00">
        <route edges="-3 9 19 125 344 365 535 601"/>
    </vehicle>
    <vehicle id="pass72" depart="72.00">
        <route edges="-614 -579 -383 -128 -25 17 38 319 639 876 -1359 1363 1429 1517 1783 -1883"/>
    </vehicle>
    <vehicle id="pass73" depart="73.00">
        <route edges="1011 -1011 1005 -1029 -728 -11 3"/>
    </vehicle>
    <vehicle id="pass74" depart="74.00">
        <route edges="-1535 -1494 1357 1415 -523 505 -505"/>
    </vehicle>
    <vehicle id="pass75" depart="75.00">
        <route edges="882 1323 1373 1431 1524"/>
    </vehicle>
    <vehicle id="pass76" depart="76.00">
        <route edges="-625 -319 313 -326 -121 121"/>
    </vehicle>
    <vehicle id="pass77" depart="77.00">
        <route edges="-1404 -1345 -1011 -612 -577 -383 -128 -25"/>
    </vehicle>
    <vehicle id="pass78" depart="78.00">
        <route edges="-383 -128 -25 19 123 338 523 -1415 1415"/>
    </vehicle>
    <vehicle id="pass79" depart="79.00">
        <route edges="-1783 -1517 -1429 -1363 1359 -876 -639 -319 -38 -17 25 210 -210"/>
    </vehicle>
    <vehicle id="pass80" depart="80.00">
        <route edges="-13 15 117 319 639 876 -1359 1363 1429 1499"/>
    </vehicle>
    <vehicle id="pass81" depart="81.00">
        <route edges="-1775 -1501 -1429 -1363 1359 -876 -639 639"/>
    </vehicle>
    <vehicle id="pass82" depart="82.00">
        <route edges="535 601 -613 614 -608 612 1011 -1342"/>
    </vehicle>
    <vehicle id="pass83" depart="83.00">
        <route edges="-1798 -1523 -1429 -1363 1359 -876 -639 -319 -38 -17 17"/>
    </vehicle>
    <vehicle id="pass84" depart="84.00">
        <route edges="-1771 -1499 -1429 1427 1447 -1447"/>
    </vehicle>
    <vehicle id="pass85" depart="85.00">
        <route edges="642 -642 -592 -332 -119 -15 13 -17 25 138"/>
    </vehicle>
    <vehicle id="pass86" depart="86.00">
        <route edges="-696 -11 9 19 123 336 361"/>
    </vehicle>
    <vehicle id="pass87" depart="87.00">
        <route edges="349 -344 -125 123 338 523 -1415 -1357 1494 -1447 -1427 1429 1501 1775 -1771"/>
    </vehicle>
    <vehicle id="pass88" depart="88.00">
        <route edges="-1363 1359 -876 -639 -319 -117 -15 -3 11 728 -728"/>
    </vehicle>
    <vehicle id="pass89" depart="89.00">
        <route edges="-614 614 -608 612 1005"/>
    </vehicle>
    <vehicle id="pass90" depart="90.00">
        <route edges="1774 -1523 -1429 1427 1447 -1494 1357 1425 1493 1767"/>
    </vehicle>
    <vehicle id="pass91" depart="91.00">
        <route edges="870 -679 333 -138"/>
    </vehicle>
    <vehicle id="pass92" depart="92.00">
        <route edges="-597 -505 -338 -123 -19 25 128 383 577 -577"/>
    </vehicle>
    <vehicle id="pass93" depart="93.00">
        <route edges="535 601 -585 -210 -25 17 -13 15 119 332 592 -592 -332"/>
    </vehicle>
    <vehicle id="pass94" depart="94.00">
        <route edges="-1526 1524 1533 1535 -876 -639 -319 -117 -15 -3 11 696 -870"/>
    </vehicle>
    <vehicle id="pass95" depart="95.00">
        <route edges="-614 -579 -383 -128 138 348 -356"/>
    </vehicle>
    <vehicle id="pass96" depart="96.00">
        <route edges="-1891 -1526 1524 1533 1535 -876 -639 625 732 837 -674 674"/>
    </vehicle>
    <vehicle id="pass97" depart="97.00">
        <route edges="-64 38 325 589"/>
    </vehicle>
    <vehicle id="pass98" depart="98.00">
        <route edges="1033 -882 -639 -319 313 -326 -121 125 -125"/>
    </vehicle>
    <vehicle id="pass99" depart="99.00">
        <route edges="9 19 125 344 365 569"/>
    </vehicle>
    <vehicle id="pass100" depart="100.00">
        <route edges="730 -639 -319 -117 -15 -3 7 679"/>
    </vehicle>
    <vehicle id="pass101" depart="101.00">
        <route edges="517 -588 589 -1415 -1357 1494 -1533 -1524 1526 -1526"/>
    </vehicle>
    <vehicle id="pass102" depart="102.00">
        <route edges="-730 -623 -319 313 -326 -121 -19"/>
    </vehicle>
    <vehicle id="pass103" depart="103.00">
        <route edges="-597 -505 -338 -123 -19 25 128 -128"/>
    </vehicle>
    <vehicle id="pass104" depart="104.00">
        <route edges="-577 -383 -128 -25 17 38 319 639 876"/>
    </vehicle>
    <vehicle id="pass105" depart="105.00">
        <route edges="-3 9 19 123 336 361"/>
    </vehicle>
    <vehicle id="pass106" depart="106.00">
        <route edges="-674 -592 -332 -119 -15 -3 11 698 1027 -1027 -698"/>
    </vehicle>
    <vehicle id="pass107" depart="107.00">
        <route edges="698 1027 -1027 -698 -11 3 15 117 319 639 882"/>
    </vehicle>
    <vehicle id="pass108" depart="108.00">
        <route edges="1093 -1093 -1029 -728 -11 9 19"/>
    </vehicle>
    <vehicle id="pass109" depart="109.00">
        <route edges="-1483 -1425 1415 -523 -338 -123 125 344 -349 -381"/>
    </vehicle>
    <vehicle id="pass110" depart="110.00">
        <route edges="730 -639 -319 313 -326 -121 125 344 365 569 1391"/>
    </vehicle>
    <vehicle id="pass111" depart="111.00">
        <route edges="1027 -1027 -698 -11 3 13 64 326"/>
    </vehicle>
    <vehicle id="pass112" depart="112.00">
        <route edges="-123 -19 -9 11 728 1029 1093 1342 1345 1404"/>
    </vehicle>
    <vehicle id="pass113" depart="113.00">
        <route edges="-840 -642 -592 -332 -119 -15 13 -17 25 210 585"/>
    </vehicle>
    <vehicle id="pass114" depart="114.00">
        <route edges="-1493 -1425 -1357 -880 -639 625 734"/>
    </vehicle>
    <vehicle id="pass115" depart="115.00">
        <route edges="-1342 -1093 -1029 -728 -11 3 15 117 319 639 876 -1359 1363 1429 1517 -1769"/>
    </vehicle>
    <vehicle id="pass116" depart="116.00">
        <route edges="128 -128 -25 19 123 338 523 -1415 1425 1493 1767"/>
    </vehicle>
    <vehicle id="pass117" depart="117.00">
        <route edges="-1797 -1517 -1429"/>
    </vehicle>
    <vehicle id="pass118" depart="118.00">
        <route edges="592 674 -837 -330"/>
    </vehicle>
    <vehicle id="pass119" depart="119.00">
        <route edges="128 -128 -25 19 123 338 523 -1415 1425 1483"/>
    </vehicle>
    <vehicle id="pass120" depart="120.00">
        <route edges="-613 614 -608 612 1011 1345 1396"/>
    </vehicle>
    <vehicle id="pass121" depart="121.00">
        <route edges="-876 880 1357 1415 -523 505 597 686"/>
    </vehicle>
    <vehicle id="pass122" depart="122.00">
        <route edges="-17 17 38 319 639 876 -1535 -1533 -1524 1526 1891"/>
    </vehicle>
    <vehicle id="pass123" depart="123.00">
        <route edges="-1798 -1523 -1429 -1363 1359 -876 -639"/>
    </vehicle>
    <vehicle id="pass124" depart="124.00">
        <route edges="1493 1767 1357 1415 -523 -338 -123 -19 25 128 383 -383"/>
    </vehicle>
    <vehicle id="pass125" depart="125.00">
        <route edges="-356 -7 3 15 119 330"/>
    </vehicle>
    <vehicle id="pass126" depart="126.00">
        <route edges="-1323 -882"/>
    </vehicle>
    <vehicle id="pass127" depart="127.00">
        <route edges="9 17 38 319 639 882"/>
    </vehicle>
    <vehicle id="pass128" depart="128.00">
        <route edges="-1323 1323 1363 1429 1517 1783 -1883"/>
    </vehicle>
    <vehicle id="pass129" depart="129.00">
        <route edges="-3 9 19 123 338 505 597 686"/>
    </vehicle>
    <vehicle id="pass130" depart="130.00">
        <route edges="585 -613 614 -608 612"/>
    </vehicle>
    <vehicle id="pass131" depart="131.00">
        <route edges="-535 -365 -344 -125 123 338 523 -1415 -1357 1494 -1447 -1427 1429 1523 -1523"/>
    </vehicle>
    <vehicle id="pass132" depart="132.00">
        <route edges="383 -383 -128 -25 17 38 319 639 876 -1359 1363 1429 1523 1798"/>
    </vehicle>
    <vehicle id="pass133" depart="133.00">
        <route edges="1345 -1345 -1342 -1093 -1029 -728 -11 3 15 117 319 639 876"/>
    </vehicle>
    <vehicle id="pass134" depart="134.00">
        <route edges="1429 -1429 -1363 1359 -876 -639 -319 -117 -15 -3 11 698 1027 -1027"/>
    </vehicle>
    <vehicle id="pass135" depart="135.00">
        <route edges="365 -365 -349 -381 383 -383"/>
    </vehicle>
    <vehicle id="pass136" depart="136.00">
        <route edges="1441 1533 1535 -876 -639 -319 -117 -15 -3 11 696"/>
    </vehicle>
    <vehicle id="pass137" depart="137.00">
        <route edges="-1429 1427 -1427"/>
    </vehicle>
    <vehicle id="pass138" depart="138.00">
        <route edges="-1388 -533 -365 -349 -381 383 577 612 1011 1345"/>
    </vehicle>
    <vehicle id="pass139" depart="139.00">
        <route edges="-319 319 639 876 -1535 -1447 1431"/>
    </vehicle>
    <vehicle id="pass140" depart="140.00">
        <route edges="1769 1783 -1883 1883 -1783"/>
    </vehicle>
    <vehicle id="pass141" depart="141.00">
        <route edges="1388 -1388 -533 -365 -344"/>
    </vehicle>
    <vehicle id="pass142" depart="142.00">
        <route edges="-730 -623 639"/>
    </vehicle>
    <vehicle id="pass143" depart="143.00">
        <route edges="505 -505 523 -1415 -1357 1494 -1447 -1373"/>
    </vehicle>
    <vehicle id="pass144" depart="144.00">
        <route edges="-614 -579 -383 -128 138 348 -356"/>
    </vehicle>
    <vehicle id="pass145" depart="145.00">
        <route edges="-1005 1005 -1029 870 -679 333 348"/>
    </vehicle>
    <vehicle id="pass146" depart="146.00">
        <route edges="1388 -1388 -533 -365 -344 -125 123 338 -338"/>
    </vehicle>
    <vehicle id="pass147" depart="147.00">
        <route edges="1798 -1773 -1501 -1429 -1363 1359 -876 -639 -319 -117 -15 -3 11 728 1029 1093 1342 1345"/>
    </vehicle>
    <vehicle id="pass148" depart="148.00">
        <route edges="-621 -319 -117 -15 -3 11 698 1027 -1027"/>
    </vehicle>
    <vehicle id="pass149" depart="149.00">
        <route edges="-1323 -882 -639 -319 -38 -17 25 128 383 579 613"/>
    </vehicle>
    <vehicle id="pass150" depart="150.00">
        <route edges="608 -614 614 -608 612 1005 1093 1342"/>
    </vehicle>
    <vehicle id="pass151" depart="151.00">
        <route edges="383 577 612 1011 1345 1396"/>
    </vehicle>
    <vehicle id="pass152" depart="152.00">
        <route edges="-1447 1441 -1441"/>
    </vehicle>
    <vehicle id="pass153" depart="153.00">
        <route edges="-348 -138 -25 17 38 319 623"/>
    </vehicle>
    <vehicle id="pass154" depart="154.00">
        <route edges="338 517 -588 589"/>
    </vehicle>
    <vehicle id="pass155" depart="155.00">
        <route edges="601 -585 -210 -25 17 38 319 639 876 -1359 1363 1429 1517 1783 -1883"/>
    </vehicle>
    <vehicle id="pass156" depart="156.00">
        <route edges="-1891 -1526 1524 1533 -1494 1357 1415 -523 -338 -123 125 344 365 533 1388 -1388"/>
    </vehicle>
    <vehicle id="pass157" depart="157.00">
        <route edges="330 -330 -119 -15 13 -17 25 128 383 579 613"/>
    </vehicle>
    <vehicle id="pass158" depart="158.00">
        <route edges="-601 -535 -365 -344 -125 123 338 523 -1415 1425 1483"/>
    </vehicle>
    <vehicle id="pass159" depart="159.00">
        <route edges="-1483 -1425 1415 -523 505 597 684"/>
    </vehicle>
    <vehicle id="pass160" depart="160.00">
        <route edges="569 1391 -1388 -533 -365 -344 -125 121 326 -313 -117 119 332 592 650 848"/>
    </vehicle>
    <vehicle id="pass161" depart="161.00">
        <route edges="356 -348 -138 128 383 577 612"/>
    </vehicle>
    <vehicle id="pass162" depart="162.00">
        <route edges="-1093 -1029 -728 -11 3 15 117 313"/>
    </vehicle>
    <vehicle id="pass163" depart="163.00">
        <route edges="-381 -128 -25 19 123 338 505 597 684"/>
    </vehicle>
    <vehicle id="pass164" depart="164.00">
        <route edges="348 -356 -7 3 15 119 332 592"/>
    </vehicle>
    <vehicle id="pass165" depart="165.00">
        <route edges="356 -348 -138 210 349 -344"/>
    </vehicle>
    <vehicle id="pass166" depart="166.00">
        <route edges="333 -138 -25 19 123 338 523 -1415"/>
    </vehicle>
    <vehicle id="pass167" depart="167.00">
        <route edges="577 -577 -383 -128 -25 17 38 325 588"/>
    </vehicle>
    <vehicle id="pass168" depart="168.00">
        <route edges="-1774 -1501 -1429 1427 1447 -1494 1357 1415 -523 -338 336 504"/>
    </vehicle>
    <vehicle id="pass169" depart="169.00">
        <route edges="-679 333 -138 126 -570 -492"/>
    </vehicle>
    <vehicle id="pass170" depart="170.00">
        <route edges="338 517 -588 -325 -117 -15 -3"/>
    </vehicle>
    <vehicle id="pass171" depart="171.00">
        <route edges="-1093 -1029 -728 -11 3 15 117 319 639 876 -1359 1363 1429 1523 1798 -1773"/>
    </vehicle>
    <vehicle id="pass172" depart="172.00">
        <route edges="-38 38 -117 119 332 592"/>
    </vehicle>
    <vehicle id="pass173" depart="173.00">
        <route edges="730 880 1357 1415 -523 -338 336 361 -361"/>
    </vehicle>
    <vehicle id="pass174" depart="174.00">
        <route edges="1415 -589 -325 313 -326 -64"/>
    </vehicle>
    <vehicle id="pass175" depart="175.00">
        <route edges="870 -696 -11 3 13"/>
    </vehicle>
    <vehicle id="pass176" depart="176.00">
        <route edges="650 848 -848 -650 674 -837 -732 734 1033 1323 1373 -1427"/>
    </vehicle>
    <vehicle id="pass177" depart="177.00">
        <route edges="732 -330 -119 -15 13 -17"/>
    </vehicle>
    <vehicle id="pass178" depart="178.00">
        <route edges="728 870 -679 333 -138 210 349 -344"/>
    </vehicle>
    <vehicle id="pass179" depart="179.00">
        <route edges="-1388 -533 -365 -344 -125 121 326 -313 319 639 -730"/>
    </vehicle>
    <vehicle id="pass180" depart="180.00">
        <route edges="1773 -1798 -1523 -1429 -1363 1359 -876 -639 -319 325 588 -517"/>
    </vehicle>
    <vehicle id="pass181" depart="181.00">
        <route edges="1342 -1342 1343 -1199 1199"/>
    </vehicle>
    <vehicle id="pass182" depart="182.00">
        <route edges="-579 -383 381 349 365 569 1391"/>
    </vehicle>
    <vehicle id="pass183" depart="183.00">
        <route edges="-19 17 38 319 639 876 -1359 1363 1429 1523 1882"/>
    </vehicle>
    <vehicle id="pass184" depart="184.00">
        <route edges="-1005 1005 -1029 870 -679 679"/>
    </vehicle>
    <vehicle id="pass185" depart="185.00">
        <route edges="1011 -1011 1005 -1029 -728 -11 9 19"/>
    </vehicle>
    <vehicle id="pass186" depart="186.00">
        <route edges="1798 -1773 -1501 -1429 -1363 1359 -876 -639 -319 -38 -17 17"/>
    </vehicle>
    <vehicle id="pass187" depart="187.00">
        <route edges="-533 -365 -349 -381 383 577 612 1011 -1342"/>
    </vehicle>
    <vehicle id="pass188" depart="188.00">
        <route edges="1447 -1494 1357 1415 -523 -338 -123 125 344 365 533 1388 -1391 -569"/>
    </vehicle>
    <vehicle id="pass189" depart="189.00">
        <route edges="-356 333 -138 128 383 579"/>
    </vehicle>
    <vehicle id="pass190" depart="190.00">
        <route edges="1769 -1517 -1429 -1363 1359 -876 -639 -319 -38 -17 25 128 383 -383"/>
    </vehicle>
    <vehicle id="pass191" depart="191.00">
        <route edges="-349 -210 -25 17 -13 15 119 332 592 650 848 -848 -650"/>
    </vehicle>
    <vehicle id="pass192" depart="192.00">
        <route edges="-597 -505 -338 -123 125 344 -349 -381"/>
    </vehicle>
    <vehicle id="pass193" depart="193.00">
        <route edges="-1425 1415 -523 -338 -123 -19 -9 11 698 1027 -1027 -698"/>
    </vehicle>
    <vehicle id="pass194" depart="194.00">
        <route edges="650 848 -848 -650 674 -837 -732 734 1033 1323 1363 1429 1499 1769"/>
    </vehicle>
    <vehicle id="pass195" depart="195.00">
        <route edges="608 -614 613 -601 -535 533 1388 1464"/>
    </vehicle>
    <vehicle id="pass196" depart="196.00">
        <route edges="-338 -123 -19 -9 11 728 1029 1093 1343"/>
    </vehicle>
    <vehicle id="pass197" depart="197.00">
        <route edges="-1005 -612 -577 -383 381 349 379 -379"/>
    </vehicle>
    <vehicle id="pass198" depart="198.00">
        <route edges="-621 -319 313 -326 -121 125 344 365 569 1391"/>
    </vehicle>
    <vehicle id="pass199" depart="199.00">
        <route edges="1429 -1429 -1363 1359 -876 -639 -319 -38 -17 -9"/>
    </vehicle>
    <vehicle id="pass200" depart="200.00">
        <route edges="-639 639 876 -1359 1363 1429 1517 1783 -1883"/>
    </vehicle>
    <vehicle id="pass201" depart="201.00">
        <route edges="-696 -11 3 15 117 319 625"/>
    </vehicle>
    <vehicle id="pass202" depart="202.00">
        <route edges="338 523 -1415 -1357 1494 -1533"/>
    </vehicle>
    <vehicle id="pass203" depart="203.00">
        <route edges="-1345 -1342 -1093 -1029 -728 -11 9 19 121"/>
    </vehicle>
    <vehicle id="pass204" depart="204.00">
        <route edges="138 -138 126 -570"/>
    </vehicle>
    <vehicle id="pass205" depart="205.00">
        <route edges="365 -365 -344 -125 121 326 -313 -117 119 330"/>
    </vehicle>
    <vehicle id="pass206" depart="206.00">
        <route edges="1494 1535 -876 -639 -319 -38 -17 25 -25"/>
    </vehicle>
    <vehicle id="pass207" depart="207.00">
        <route edges="-1535 1535 -876 -639 -319 -117 -15 -3 11 -11"/>
    </vehicle>
    <vehicle id="pass208" depart="208.00">
        <route edges="-1883 -1526 1524 1533 1535 -876 -639 -319 -117 -15 -3 11 698 1027"/>
    </vehicle>
    <vehicle id="pass209" depart="209.00">
        <route edges="517 -588 -325 -117 -15 -3 11 698 1027 1199 -1343"/>
    </vehicle>
    <vehicle id="pass210" depart="210.00">
        <route edges="-612 -577 -383 -128 -25 19 123 338 523 -1415 -1357 1494"/>
    </vehicle>
    <vehicle id="pass211" depart="211.00">
        <route edges="-1532 1526 1883 -1783 1783"/>
    </vehicle>
    <vehicle id="pass212" depart="212.00">
        <route edges="-734 -625 -319 313 -326"/>
    </vehicle>
    <vehicle id="pass213" depart="213.00">
        <route edges="1429 -1429 -1363 1359 -876 -639 -319 -117 -15 -3 11 728 1029 1093 1342 -1011"/>
    </vehicle>
    <vehicle id="pass214" depart="214.00">
        <route edges="19 125 344"/>
    </vehicle>
    <vehicle id="pass215" depart="215.00">
        <route edges="-138 138 -333 -7"/>
    </vehicle>
    <vehicle id="pass216" depart="216.00">
        <route edges="-1517 -1429 -1363 -1323 -1033 -734 732"/>
    </vehicle>
    <vehicle id="pass217" depart="217.00">
        <route edges="-870 870 -679 333 -138 126 -125"/>
    </vehicle>
    <vehicle id="pass218" depart="218.00">
        <route edges="-1891 -1526 1524 1533 1535 -876 -639 -319 -38 -17 25 128 383 579"/>
    </vehicle>
    <vehicle id="pass219" depart="219.00">
        <route edges="-674 -592 -332 -119 -15 13 -17 25 128 381"/>
    </vehicle>
    <vehicle id="pass220" depart="220.00">
        <route edges="1447 1535 -876 876"/>
    </vehicle>
    <vehicle id="pass221" depart="221.00">
        <route edges="13 -13 -3 11 728"/>
    </vehicle>
    <vehicle id="pass222" depart="222.00">
        <route edges="592 674 -837 -732 -625 639 876 -1535 -1447 1447"/>
    </vehicle>
    <vehicle id="pass223" depart="223.00">
        <route edges="1769 -1517 -1429 -1363 1359 -876 -639 -319 -117 119"/>
    </vehicle>
    <vehicle id="pass224" depart="224.00">
        <route edges="381 -381 383 577 612 1005 1093 1343"/>
    </vehicle>
    <vehicle id="pass225" depart="225.00">
        <route edges="601 -585 -210 -25 17 38 325"/>
    </vehicle>
    <vehicle id="pass226" depart="226.00">
        <route edges="-698 -11 9 19 123 336 -336"/>
    </vehicle>
    <vehicle id="pass227" depart="227.00">
        <route edges="-1883 1883 -1783 -1517 1501"/>
    </vehicle>
    <vehicle id="pass228" depart="228.00">
        <route edges="313 -326 -121 123"/>
    </vehicle>
    <vehicle id="pass229" depart="229.00">
        <route edges="1373 1447 -1494 1357 1415 -523 -338 -123 125 344 -349"/>
    </vehicle>
    <vehicle id="pass230" depart="230.00">
        <route edges="-1342 -1093 -1005 -612 -577 -383 381 349 365 -365"/>
    </vehicle>
    <vehicle id="pass231" depart="231.00">
        <route edges="-319 325 589 -523"/>
    </vehicle>
    <vehicle id="pass232" depart="232.00">
        <route edges="1011 -1011 1005 -1029 -728 -11 3 15 117 319 639 876 -1535 -1494"/>
    </vehicle>
    <vehicle id="pass233" depart="233.00">
        <route edges="-1783 -1517 1501 1775"/>
    </vehicle>
    <vehicle id="pass234" depart="234.00">
        <route edges="1535 -876 -639 -319 -38 -13"/>
    </vehicle>
    <vehicle id="pass235" depart="235.00">
        <route edges="-601 -535 -365 -349 -381 383 577 612 1005 1093 1342"/>
    </vehicle>
    <vehicle id="pass236" depart="236.00">
        <route edges="-612 -577 -383 -128 -25 17 38 319 639 876 -1359 1363 1429 1501 1773 -1798"/>
    </vehicle>
    <vehicle id="pass237" depart="237.00">
        <route edges="-614 -579 -383 -128 -25 17 38 319 639"/>
    </vehicle>
    <vehicle id="pass238" depart="238.00">
        <route edges="125 -125 123 338 523 -1415 -1357 1494 -1447 -1427 1429 1517 1783"/>
    </vehicle>
    <vehicle id="pass239" depart="239.00">
        <route edges="533 1388 -1388 -533 -365 -344 -125 123 338"/>