<!-- generated on 2023-09-08 14:24:15 by Eclipse SUMO activitygen Version 1.15.0
<configuration xmlns:xsi="http://www.w3.org/2001/XMLSchema-instance" xsi:noNamespaceSchemaLocation="http://sumo.dlr.de/xsd/activitygenConfiguration.xsd">

    <input>
        <net-file value="../sumo_config/SimpleRandom.net.xml"/>
        <stat-file value="../sumo_config/act.stat.xml"/>
    </input>

    <output>
        <output-file value="../sumo_config/test.xml"/>
    </output>

</configuration>
-->
<routes xmlns:xsi="http://www.w3.org/2001/XMLSchema-instance" xsi:noNamespaceSchemaLocation="http://sumo.dlr.de/xsd/routes_file.xsd">
  <route id="107_r" color="0.9686274509803922,0.7137254901960784,0.8235294117647058" edges="-686 -597 -505 -338 -123 -19 -9 11 698 1027 1201">
    <stop busStop="106" duration="30"/>
    <stop busStop="93" duration="30"/>
    <stop busStop="79" duration="30"/>
    <stop busStop="15" duration="30"/>
    <stop busStop="67" duration="30"/>
    <stop busStop="140" duration="30"/>
    <stop busStop="148" duration="30"/>
    <stop busStop="265" duration="30"/>
    <stop busStop="143" duration="30"/>
  </route>
  <route id="107" color="0.8901960784313725,0.4666666666666667,0.7607843137254902" edges="-1201 -1027 -698 -11 9 19 123 338 505 597 686">
    <stop busStop="3" duration="30"/>
    <stop busStop="125" duration="30"/>
    <stop busStop="8" duration="30"/>
    <stop busStop="280" duration="30"/>
    <stop busStop="207" duration="30"/>
    <stop busStop="155" duration="30"/>
    <stop busStop="219" duration="30"/>
    <stop busStop="233" duration="30"/>
    <stop busStop="246" duration="30"/>
  </route>
  <route id="106_r" color="0.7686274509803922,0.611764705882353,0.5803921568627451" edges="-601 -535 -365 -344 -125 121 326 -313 319 639 876 -1359 1363 1429 1523 1882">
    <stop busStop="97" duration="30"/>
    <stop busStop="85" duration="30"/>
    <stop busStop="80" duration="30"/>
    <stop busStop="16" duration="30"/>
    <stop busStop="154" duration="30"/>
    <stop busStop="214" duration="30"/>
    <stop busStop="71" duration="30"/>
    <stop busStop="212" duration="30"/>
    <stop busStop="256" duration="30"/>
    <stop busStop="277" duration="30"/>
    <stop busStop="25" duration="30"/>
    <stop busStop="166" duration="30"/>
    <stop busStop="176" duration="30"/>
    <stop busStop="188" duration="30"/>
  </route>
  <route id="106" color="0.5490196078431373,0.33725490196078434,0.29411764705882354" edges="-1882 -1523 -1429 -1363 1359 -876 -639 -319 313 -326 -121 125 344 365 535 601">
    <stop busStop="48" duration="30"/>
    <stop busStop="36" duration="30"/>
    <stop busStop="26" duration="30"/>
    <stop busStop="165" duration="30"/>
    <stop busStop="137" duration="30"/>
    <stop busStop="116" duration="30"/>
    <stop busStop="72" duration="30"/>
    <stop busStop="211" duration="30"/>
    <stop busStop="74" duration="30"/>
    <stop busStop="14" duration="30"/>
    <stop busStop="156" duration="30"/>
    <stop busStop="220" duration="30"/>
    <stop busStop="225" duration="30"/>
    <stop busStop="237" duration="30"/>
  </route>
  <route id="105_r" color="0.7725490196078432,0.6901960784313725,0.8352941176470589" edges="-1464 -1388 -533 -365 -344 -125 121 326 -313 319 621">
    <stop busStop="29" duration="30"/>
    <stop busStop="96" duration="30"/>
    <stop busStop="85" duration="30"/>
    <stop busStop="80" duration="30"/>
    <stop busStop="16" duration="30"/>
    <stop busStop="154" duration="30"/>
    <stop busStop="214" duration="30"/>
    <stop busStop="71" duration="30"/>
    <stop busStop="212" duration="30"/>
  </route>
  <route id="105" color="0.5803921568627451,0.403921568627451,0.7411764705882353" edges="-621 -319 313 -326 -121 125 344 365 533 1388 1464">
    <stop busStop="72" duration="30"/>
    <stop busStop="211" duration="30"/>
    <stop busStop="74" duration="30"/>
    <stop busStop="14" duration="30"/>
    <stop busStop="156" duration="30"/>
    <stop busStop="220" duration="30"/>
    <stop busStop="225" duration="30"/>
    <stop busStop="236" duration="30"/>
    <stop busStop="169" duration="30"/>
  </route>
  <route id="104_r" color="1.0,0.596078431372549,0.5882352941176471" edges="-1404 -1345 -1342 -1093 -1029 -728 -11 3 15 117 319 639 876 -1535 -1533 -1524 1526 1891">
    <stop busStop="23" duration="30"/>
    <stop busStop="21" duration="30"/>
    <stop busStop="7" duration="30"/>
    <stop busStop="4" duration="30"/>
    <stop busStop="127" duration="30"/>
    <stop busStop="8" duration="30"/>
    <stop busStop="210" duration="30"/>
    <stop busStop="185" duration="30"/>
    <stop busStop="150" duration="30"/>
    <stop busStop="212" duration="30"/>
    <stop busStop="256" duration="30"/>
    <stop busStop="277" duration="30"/>
    <stop busStop="53" duration="30"/>
    <stop busStop="52" duration="30"/>
    <stop busStop="49" duration="30"/>
    <stop busStop="190" duration="30"/>
  </route>
  <route id="104" color="0.8392156862745098,0.15294117647058825,0.1568627450980392" edges="-1891 -1526 1524 1533 1535 -876 -639 -319 -117 -15 -3 11 728 1029 1093 1342 1345 1404">
    <stop busStop="50" duration="30"/>
    <stop busStop="189" duration="30"/>
    <stop busStop="192" duration="30"/>
    <stop busStop="193" duration="30"/>
    <stop busStop="137" duration="30"/>
    <stop busStop="116" duration="30"/>
    <stop busStop="72" duration="30"/>
    <stop busStop="10" duration="30"/>
    <stop busStop="45" duration="30"/>
    <stop busStop="70" duration="30"/>
    <stop busStop="148" duration="30"/>
    <stop busStop="267" duration="30"/>
    <stop busStop="144" duration="30"/>
    <stop busStop="147" duration="30"/>
    <stop busStop="161" duration="30"/>
    <stop busStop="163" duration="30"/>
  </route>
  <route id="103_r" color="0.596078431372549,0.8745098039215686,0.5411764705882353" edges="-1483 -1425 1415 -589 -325 -117 -15 -3 11 728 1029 1093 1342 1345 1404">
    <stop busStop="34" duration="30"/>
    <stop busStop="173" duration="30"/>
    <stop busStop="104" duration="30"/>
    <stop busStop="73" duration="30"/>
    <stop busStop="10" duration="30"/>
    <stop busStop="45" duration="30"/>
    <stop busStop="70" duration="30"/>
    <stop busStop="148" duration="30"/>
    <stop busStop="267" duration="30"/>
    <stop busStop="144" duration="30"/>
    <stop busStop="147" duration="30"/>
    <stop busStop="161" duration="30"/>
    <stop busStop="163" duration="30"/>
  </route>
  <route id="103" color="0.17254901960784313,0.6274509803921569,0.17254901960784313" edges="-1404 -1345 -1342 -1093 -1029 -728 -11 3 15 117 325 589 -1415 1425 1483">
    <stop busStop="23" duration="30"/>
    <stop busStop="21" duration="30"/>
    <stop busStop="7" duration="30"/>
    <stop busStop="4" duration="30"/>
    <stop busStop="127" duration="30"/>
    <stop busStop="8" duration="30"/>
    <stop busStop="210" duration="30"/>
    <stop busStop="185" duration="30"/>
    <stop busStop="150" duration="30"/>
    <stop busStop="213" duration="30"/>
    <stop busStop="244" duration="30"/>
    <stop busStop="33" duration="30"/>
    <stop busStop="174" duration="30"/>
  </route>
  <route id="102_r" color="1.0,0.7333333333333333,0.47058823529411764" edges="-867 -618 -579 -383 -128 -25 17 38 319 639 876 -1359 1363 1429 1517 1797">
    <stop busStop="112" duration="30"/>
    <stop busStop="101" duration="30"/>
    <stop busStop="89" duration="30"/>
    <stop busStop="18" duration="30"/>
    <stop busStop="69" duration="30"/>
    <stop busStop="194" duration="30"/>
    <stop busStop="227" duration="30"/>
    <stop busStop="212" duration="30"/>
    <stop busStop="256" duration="30"/>
    <stop busStop="277" duration="30"/>
    <stop busStop="25" duration="30"/>
    <stop busStop="166" duration="30"/>
    <stop busStop="176" duration="30"/>
    <stop busStop="187" duration="30"/>
  </route>
  <route id="102" color="1.0,0.4980392156862745,0.054901960784313725" edges="-1797 -1517 -1429 -1363 1359 -876 -639 -319 -38 -17 25 128 383 579 618 867">
    <stop busStop="47" duration="30"/>
    <stop busStop="36" duration="30"/>
    <stop busStop="26" duration="30"/>
    <stop busStop="165" duration="30"/>
    <stop busStop="137" duration="30"/>
    <stop busStop="116" duration="30"/>
    <stop busStop="72" duration="30"/>
    <stop busStop="87" duration="30"/>
    <stop busStop="54" duration="30"/>
    <stop busStop="209" duration="30"/>
    <stop busStop="158" duration="30"/>
    <stop busStop="229" duration="30"/>
    <stop busStop="241" duration="30"/>
    <stop busStop="252" duration="30"/>
  </route>
  <route id="101_r" color="0.6823529411764706,0.7803921568627451,0.9098039215686274" edges="-496 -361 -336 338 517 -588 -325 -117 119 332 592 642 840">
    <stop busStop="84" duration="30"/>
    <stop busStop="78" duration="30"/>
    <stop busStop="219" duration="30"/>
    <stop busStop="234" duration="30"/>
    <stop busStop="103" duration="30"/>
    <stop busStop="73" duration="30"/>
    <stop busStop="10" duration="30"/>
    <stop busStop="151" duration="30"/>
    <stop busStop="216" duration="30"/>
    <stop busStop="245" duration="30"/>
    <stop busStop="258" duration="30"/>
  </route>
  <route id="101" color="0.12156862745098039,0.4666666666666667,0.7058823529411765" edges="-840 -642 -592 -332 -119 117 325 588 -517 -338 336 361 496">
    <stop busStop="118" duration="30"/>
    <stop busStop="105" duration="30"/>
    <stop busStop="76" duration="30"/>
    <stop busStop="11" duration="30"/>
    <stop busStop="150" duration="30"/>
    <stop busStop="213" duration="30"/>
    <stop busStop="243" duration="30"/>
    <stop busStop="94" duration="30"/>
    <stop busStop="79" duration="30"/>
    <stop busStop="218" duration="30"/>
    <stop busStop="224" duration="30"/>
  </route>
  <vType id="default" vClass="passenger" color="red"/>
  <vType id="random" vClass="passenger" color="blue"/>
  <vType id="bus" vClass="bus"/>
  <trip id="randUni1055:1" type="random" depart="32.00" departPos="90.56" arrivalPos="40.75" arrivalSpeed="0.00" from="-496" to="570"/>
  <trip id="randUni957:1" type="random" depart="34.00" departPos="56.18" arrivalPos="29.24" arrivalSpeed="0.00" from="-1005" to="-11"/>
  <trip id="randUni51:1" type="random" depart="150.00" departPos="71.74" arrivalPos="58.63" arrivalSpeed="0.00" from="614" to="-128"/>
  <trip id="randUni3417:1" type="random" depart="157.00" departPos="0.49" arrivalPos="24.38" arrivalSpeed="0.00" from="-116" to="326"/>
  <trip id="randUni1829:1" type="random" depart="189.00" departPos="151.16" arrivalPos="163.63" arrivalSpeed="0.00" from="1415" to="-1345"/>
  <trip id="randUni1904:1" type="random" depart="256.00" departPos="89.17" arrivalPos="37.43" arrivalSpeed="0.00" from="-11" to="17"/>
  <trip id="randUni515:1" type="random" depart="349.00" departPos="93.14" arrivalPos="135.92" arrivalSpeed="0.00" from="1396" to="-1363"/>
  <trip id="randUni3619:1" type="random" depart="421.00" departPos="129.33" arrivalPos="109.07" arrivalSpeed="0.00" from="-1201" to="-612"/>
  <trip id="randUni1703:1" type="random" depart="444.00" departPos="2.43" arrivalPos="37.89" arrivalSpeed="0.00" from="349" to="-1033"/>
  <trip id="randUni3634:1" type="random" depart="448.00" departPos="147.90" arrivalPos="21.48" arrivalSpeed="0.00" from="1323" to="336"/>
  <trip id="randUni1410:1" type="random" depart="453.00" departPos="86.81" arrivalPos="2.45" arrivalSpeed="0.00" from="1388" to="696"/>
  <trip id="randUni2698:1" type="random" depart="505.00" departPos="95.89" arrivalPos="79.31" arrivalSpeed="0.00" from="579" to="11"/>
  <trip id="randUni1469:1" type="random" depart="507.00" departPos="68.70" arrivalPos="33.55" arrivalSpeed="0.00" from="319" to="-1769"/>
  <trip id="randUni3365:1" type="random" depart="548.00" departPos="4.75" arrivalPos="9.29" arrivalSpeed="0.00" from="-117" to="-585"/>
  <trip id="randUni738:1" type="random" depart="693.00" departPos="3.92" arrivalPos="26.64" arrivalSpeed="0.00" from="-15" to="344"/>
  <trip id="randUni2845:1" type="random" depart="726.00" departPos="12.11" arrivalPos="22.91" arrivalSpeed="0.00" from="117" to="577"/>
  <trip id="randUni1861:1" type="random" depart="732.00" departPos="171.17" arrivalPos="53.99" arrivalSpeed="0.00" from="-1783" to="-588"/>
  <trip id="randUni3192:1" type="random" depart="735.00" departPos="36.30" arrivalPos="50.46" arrivalSpeed="0.00" from="1533" to="326"/>
  <trip id="randUni1191:1" type="random" depart="808.00" departPos="12.86" arrivalPos="107.83" arrivalSpeed="0.00" from="-1199" to="-1345"/>
  <trip id="randUni948:1" type="random" depart="837.00" departPos="76.85" arrivalPos="121.45" arrivalSpeed="0.00" from="-332" to="-1029"/>
  <trip id="randUni479:1" type="random" depart="856.00" departPos="113.19" arrivalPos="86.47" arrivalSpeed="0.00" from="730" to="349"/>
  <trip id="randUni1160:1" type="random" depart="860.00" departPos="66.49" arrivalPos="33.47" arrivalSpeed="0.00" from="325" to="356"/>
  <trip id="randUni3382:1" type="random" depart="930.00" departPos="4.92" arrivalPos="5.23" arrivalSpeed="0.00" from="-119" to="-642"/>
  <trip id="randUni866:1" type="random" depart="964.00" departPos="200.76" arrivalPos="151.50" arrivalSpeed="0.00" from="840" to="-569"/>
  <trip id="randUni2289:1" type="random" depart="1084.00" departPos="58.18" arrivalPos="110.55" arrivalSpeed="0.00" from="325" to="601"/>
  <trip id="randUni3632:1" type="random" depart="1113.00" departPos="208.84" arrivalPos="30.62" arrivalSpeed="0.00" from="867" to="356"/>
  <trip id="randUni3221:1" type="random" depart="1123.00" departPos="47.33" arrivalPos="14.28" arrivalSpeed="0.00" from="381" to="-876"/>
  <trip id="randUni987:1" type="random" depart="1134.00" departPos="82.55" arrivalPos="82.72" arrivalSpeed="0.00" from="-1427" to="-1891"/>
  <trip id="randUni1228:1" type="random" depart="1142.00" departPos="124.53" arrivalPos="111.05" arrivalSpeed="0.00" from="-3" to="-1057"/>
  <trip id="randUni3356:1" type="random" depart="1175.00" departPos="165.58" arrivalPos="31.36" arrivalSpeed="0.00" from="-650" to="-1057"/>
  <trip id="randUni1269:1" type="random" depart="1214.00" departPos="70.65" arrivalPos="3.52" arrivalSpeed="0.00" from="-1027" to="1883"/>
  <trip id="randUni3837:1" type="random" depart="1238.00" departPos="16.21" arrivalPos="61.40" arrivalSpeed="0.00" from="210" to="13"/>
  <trip id="randUni3398:1" type="random" depart="1270.00" departPos="20.20" arrivalPos="52.51" arrivalSpeed="0.00" from="-1005" to="698"/>
  <trip id="randUni2208:1" type="random" depart="1318.00" departPos="83.02" arrivalPos="57.86" arrivalSpeed="0.00" from="-15" to="-1483"/>
  <trip id="randUni2178:1" type="random" depart="1333.00" departPos="116.11" arrivalPos="81.53" arrivalSpeed="0.00" from="-579" to="1005"/>
  <trip id="randUni2491:1" type="random" depart="1353.00" departPos="83.94" arrivalPos="23.42" arrivalSpeed="0.00" from="1524" to="846"/>
  <trip id="randUni3538:1" type="random" depart="1461.00" departPos="57.41" arrivalPos="120.62" arrivalSpeed="0.00" from="-674" to="1057"/>
  <trip id="randUni721:1" type="random" depart="1575.00" departPos="59.96" arrivalPos="69.31" arrivalSpeed="0.00" from="870" to="-1029"/>
  <trip id="randUni2974:1" type="random" depart="1669.00" departPos="25.91" arrivalPos="105.40" arrivalSpeed="0.00" from="592" to="-523"/>
  <trip id="randUni2333:1" type="random" depart="1775.00" departPos="94.81" arrivalPos="175.77" arrivalSpeed="0.00" from="1029" to="589"/>
  <trip id="randUni3404:1" type="random" depart="1778.00" departPos="53.78" arrivalPos="145.72" arrivalSpeed="0.00" from="730" to="19"/>
  <trip id="randUni2690:1" type="random" depart="1788.00" departPos="73.21" arrivalPos="68.84" arrivalSpeed="0.00" from="7" to="-1005"/>
  <trip id="randUni3088:1" type="random" depart="1809.00" departPos="163.32" arrivalPos="41.57" arrivalSpeed="0.00" from="-7" to="1033"/>
  <trip id="randUni3434:1" type="random" depart="1966.00" departPos="20.26" arrivalPos="43.31" arrivalSpeed="0.00" from="1535" to="-333"/>
  <trip id="randUni62:1" type="random" depart="1979.00" departPos="18.27" arrivalPos="103.18" arrivalSpeed="0.00" from="1415" to="840"/>
  <trip id="randUni766:1" type="random" depart="2089.00" departPos="124.66" arrivalPos="13.40" arrivalSpeed="0.00" from="-1775" to="-1533"/>
  <trip id="randUni3075:1" type="random" depart="2155.00" departPos="111.13" arrivalPos="45.51" arrivalSpeed="0.00" from="1363" to="-1526"/>
  <trip id="randUni1183:1" type="random" depart="2168.00" departPos="35.04" arrivalPos="97.50" arrivalSpeed="0.00" from="17" to="-7"/>
  <trip id="randUni2355:1" type="random" depart="2169.00" departPos="91.36" arrivalPos="64.65" arrivalSpeed="0.00" from="-138" to="870"/>
  <trip id="randUni2192:1" type="random" depart="2183.00" departPos="11.43" arrivalPos="1.15" arrivalSpeed="0.00" from="597" to="-613"/>
  <trip id="randUni1032:1" type="random" depart="2243.00" departPos="159.28" arrivalPos="145.53" arrivalSpeed="0.00" from="642" to="126"/>
  <trip id="randUni1373:1" type="random" depart="2280.00" departPos="18.10" arrivalPos="116.43" arrivalSpeed="0.00" from="336" to="523"/>
  <trip id="randUni2634:1" type="random" depart="2421.00" departPos="17.31" arrivalPos="138.80" arrivalSpeed="0.00" from="597" to="535"/>
  <trip id="randUni474:1" type="random" depart="2430.00" departPos="35.39" arrivalPos="59.30" arrivalSpeed="0.00" from="-840" to="1535"/>
  <trip id="randUni2758:1" type="random" depart="2478.00" departPos="164.71" arrivalPos="60.79" arrivalSpeed="0.00" from="1323" to="17"/>
  <trip id="randUni2480:1" type="random" depart="2506.00" departPos="53.87" arrivalPos="29.34" arrivalSpeed="0.00" from="-361" to="-1029"/>
  <trip id="randUni581:1" type="random" depart="2539.00" departPos="22.00" arrivalPos="17.17" arrivalSpeed="0.00" from="-1342" to="381"/>
  <trip id="randUni2687:1" type="random" depart="2550.00" departPos="94.18" arrivalPos="48.79" arrivalSpeed="0.00" from="588" to="125"/>
  <trip id="randUni3472:1" type="random" depart="2575.00" departPos="0.48" arrivalPos="153.64" arrivalSpeed="0.00" from="-326" to="840"/>
  <trip id="randUni293:1" type="random" depart="2585.00" departPos="152.63" arrivalPos="97.70" arrivalSpeed="0.00" from="517" to="-1769"/>
  <trip id="randUni1134:1" type="random" depart="2588.00" departPos="142.87" arrivalPos="8.11" arrivalSpeed="0.00" from="-1783" to="1404"/>
  <trip id="randUni3072:1" type="random" depart="2680.00" departPos="73.62" arrivalPos="123.93" arrivalSpeed="0.00" from="-614" to="1093"/>
  <trip id="randUni3133:1" type="random" depart="2722.00" departPos="76.43" arrivalPos="15.21" arrivalSpeed="0.00" from="-696" to="1033"/>
  <trip id="randUni3345:1" type="random" depart="2736.00" departPos="16.26" arrivalPos="153.02" arrivalSpeed="0.00" from="-1199" to="569"/>
  <trip id="randUni1876:1" type="random" depart="2772.00" departPos="104.09" arrivalPos="65.58" arrivalSpeed="0.00" from="-505" to="-15"/>
  <trip id="randUni2604:1" type="random" depart="2775.00" departPos="82.91" arrivalPos="29.52" arrivalSpeed="0.00" from="1357" to="-210"/>
  <trip id="randUni3859:1" type="random" depart="2858.00" departPos="44.58" arrivalPos="90.28" arrivalSpeed="0.00" from="1199" to="-1524"/>
  <trip id="randUni3481:1" type="random" depart="2928.00" departPos="61.88" arrivalPos="9.50" arrivalSpeed="0.00" from="326" to="1524"/>
  <trip id="randUni634:1" type="random" depart="3016.00" departPos="148.84" arrivalPos="121.92" arrivalSpeed="0.00" from="612" to="-504"/>
  <trip id="randUni2261:1" type="random" depart="3016.00" departPos="133.10" arrivalPos="86.31" arrivalSpeed="0.00" from="639" to="-3"/>
  <trip id="randUni1844:1" type="random" depart="3049.00" departPos="191.55" arrivalPos="65.01" arrivalSpeed="0.00" from="-1775" to="-1883"/>
  <trip id="randUni1304:1" type="random" depart="3086.00" departPos="48.41" arrivalPos="66.68" arrivalSpeed="0.00" from="-1033" to="1771"/>
  <trip id="randUni2616:1" type="random" depart="3165.00" departPos="68.54" arrivalPos="80.07" arrivalSpeed="0.00" from="-1797" to="728"/>
  <trip id="randUni2148:1" type="random" depart="3183.00" departPos="14.64" arrivalPos="151.33" arrivalSpeed="0.00" from="882" to="-612"/>
  <trip id="randUni3250:1" type="random" depart="3298.00" departPos="152.41" arrivalPos="85.87" arrivalSpeed="0.00" from="-523" to="-846"/>
  <trip id="randUni2805:1" type="random" depart="3367.00" departPos="46.86" arrivalPos="62.50" arrivalSpeed="0.00" from="336" to="613"/>
  <trip id="randUni1513:1" type="random" depart="3480.00" departPos="82.81" arrivalPos="58.16" arrivalSpeed="0.00" from="-614" to="-3"/>
  <trip id="randUni375:1" type="random" depart="3593.00" departPos="83.64" arrivalPos="77.23" arrivalSpeed="0.00" from="-1483" to="-1005"/>
  <trip id="randUni31:1" type="random" depart="3641.00" departPos="103.73" arrivalPos="170.67" arrivalSpeed="0.00" from="-589" to="-577"/>
  <trip id="randUni2120:1" type="random" depart="3815.00" departPos="81.28" arrivalPos="61.86" arrivalSpeed="0.00" from="-592" to="-64"/>
  <trip id="randUni3572:1" type="random" depart="3858.00" departPos="36.64" arrivalPos="138.72" arrivalSpeed="0.00" from="-1429" to="-1345"/>
  <trip id="randUni3793:1" type="random" depart="3894.00" departPos="94.22" arrivalPos="63.71" arrivalSpeed="0.00" from="1771" to="325"/>
  <trip id="randUni864:1" type="random" depart="3906.00" departPos="22.66" arrivalPos="86.62" arrivalSpeed="0.00" from="-11" to="-589"/>
  <trip id="randUni16:1" type="random" depart="3917.00" departPos="95.63" arrivalPos="37.05" arrivalSpeed="0.00" from="1396" to="-837"/>
  <trip id="randUni595:1" type="random" depart="4006.00" departPos="55.58" arrivalPos="45.81" arrivalSpeed="0.00" from="-597" to="1391"/>
  <trip id="randUni3043:1" type="random" depart="4219.00" departPos="47.71" arrivalPos="33.46" arrivalSpeed="0.00" from="-1391" to="1415"/>
  <trip id="randUni396:1" type="random" depart="4227.00" departPos="139.54" arrivalPos="10.87" arrivalSpeed="0.00" from="-1882" to="-1464"/>
  <trip id="randUni1137:1" type="random" depart="4261.00" departPos="97.61" arrivalPos="37.41" arrivalSpeed="0.00" from="-3" to="-585"/>
  <trip id="randUni2517:1" type="random" depart="4322.00" departPos="38.07" arrivalPos="2.28" arrivalSpeed="0.00" from="-117" to="1797"/>
  <trip id="randUni3511:1" type="random" depart="4336.00" departPos="89.71" arrivalPos="25.85" arrivalSpeed="0.00" from="1373" to="1883"/>
  <trip id="randUni1465:1" type="random" depart="4385.00" departPos="21.60" arrivalPos="24.73" arrivalSpeed="0.00" from="1533" to="1033"/>
  <trip id="randUni115:1" type="random" depart="4436.00" departPos="114.58" arrivalPos="151.61" arrivalSpeed="0.00" from="125" to="9"/>
  <trip id="randUni1015:1" type="random" depart="4483.00" departPos="71.50" arrivalPos="69.26" arrivalSpeed="0.00" from="-125" to="-1005"/>
  <trip id="randUni1030:1" type="random" depart="4495.00" departPos="2.03" arrivalPos="89.95" arrivalSpeed="0.00" from="846" to="19"/>
  <trip id="randUni513:1" type="random" depart="4594.00" departPos="118.89" arrivalPos="50.79" arrivalSpeed="0.00" from="-125" to="1005"/>
  <trip id="randUni1784:1" type="random" depart="4705.00" departPos="63.70" arrivalPos="6.29" arrivalSpeed="0.00" from="-13" to="1029"/>
  <trip id="randUni3772:1" type="random" depart="4747.00" departPos="72.41" arrivalPos="33.61" arrivalSpeed="0.00" from="601" to="597"/>
  <trip id="randUni3886:1" type="random" depart="4757.00" departPos="57.13" arrivalPos="135.20" arrivalSpeed="0.00" from="119" to="-1767"/>
  <trip id="randUni3848:1" type="random" depart="4867.00" departPos="74.44" arrivalPos="79.94" arrivalSpeed="0.00" from="-570" to="1767"/>
  <trip id="randUni3200:1" type="random" depart="4905.00" departPos="28.70" arrivalPos="83.48" arrivalSpeed="0.00" from="618" to="-535"/>
  <trip id="randUni3317:1" type="random" depart="4951.00" departPos="4.94" arrivalPos="13.84" arrivalSpeed="0.00" from="-588" to="-1535"/>
  <trip id="randUni3090:1" type="random" depart="4982.00" departPos="66.12" arrivalPos="14.20" arrivalSpeed="0.00" from="1343" to="698"/>
  <trip id="randUni980:1" type="random" depart="4983.00" departPos="56.43" arrivalPos="84.79" arrivalSpeed="0.00" from="11" to="-383"/>
  <trip id="randUni2782:1" type="random" depart="5024.00" departPos="150.64" arrivalPos="147.96" arrivalSpeed="0.00" from="1359" to="517"/>
  <trip id="randUni1664:1" type="random" depart="5027.00" departPos="73.75" arrivalPos="153.12" arrivalSpeed="0.00" from="17" to="1882"/>
  <trip id="randUni1448:1" type="random" depart="5059.00" departPos="3.87" arrivalPos="18.00" arrivalSpeed="0.00" from="684" to="621"/>
  <trip id="randUni2623:1" type="random" depart="5067.00" departPos="87.11" arrivalPos="27.41" arrivalSpeed="0.00" from="-1429" to="1526"/>
  <trip id="randUni3642:1" type="random" depart="5081.00" departPos="157.28" arrivalPos="160.57" arrivalSpeed="0.00" from="-121" to="9"/>
  <trip id="randUni3441:1" type="random" depart="5111.00" departPos="146.82" arrivalPos="18.06" arrivalSpeed="0.00" from="1773" to="846"/>
  <trip id="randUni3384:1" type="random" depart="5121.00" departPos="48.30" arrivalPos="83.58" arrivalSpeed="0.00" from="592" to="623"/>
  <trip id="randUni1515:1" type="random" depart="5162.00" departPos="119.38" arrivalPos="63.91" arrivalSpeed="0.00" from="-1773" to="138"/>
  <trip id="randUni1650:1" type="random" depart="5188.00" departPos="4.20" arrivalPos="100.87" arrivalSpeed="0.00" from="1447" to="-319"/>
  <trip id="randUni1016:1" type="random" depart="5215.00" departPos="162.97" arrivalPos="58.73" arrivalSpeed="0.00" from="-7" to="326"/>
  <trip id="randUni1944:1" type="random" depart="5233.00" departPos="168.08" arrivalPos="65.70" arrivalSpeed="0.00" from="319" to="-1494"/>
  <trip id="randUni2072:1" type="random" depart="5369.00" departPos="74.17" arrivalPos="66.07" arrivalSpeed="0.00" from="1345" to="-505"/>
  <trip id="randUni2509:1" type="random" depart="5402.00" departPos="33.21" arrivalPos="24.37" arrivalSpeed="0.00" from="1517" to="870"/>
  <trip id="randUni2245:1" type="random" depart="5403.00" departPos="11.11" arrivalPos="90.43" arrivalSpeed="0.00" from="-1883" to="533"/>
  <trip id="randUni3304:1" type="random" depart="5409.00" departPos="100.43" arrivalPos="80.33" arrivalSpeed="0.00" from="1359" to="585"/>
  <trip id="randUni3473:1" type="random" depart="5412.00" departPos="68.08" arrivalPos="129.80" arrivalSpeed="0.00" from="-876" to="-1783"/>
  <trip id="randUni1171:1" type="random" depart="5454.00" departPos="131.21" arrivalPos="0.08" arrivalSpeed="0.00" from="-138" to="9"/>
  <trip id="randUni2440:1" type="random" depart="5478.00" departPos="130.71" arrivalPos="104.73" arrivalSpeed="0.00" from="383" to="11"/>
  <trip id="randUni3615:1" type="random" depart="5540.00" departPos="95.28" arrivalPos="113.24" arrivalSpeed="0.00" from="1441" to="-19"/>
  <trip id="randUni616:1" type="random" depart="5575.00" departPos="83.79" arrivalPos="120.62" arrivalSpeed="0.00" from="210" to="1771"/>
  <trip id="randUni1774:1" type="random" depart="5629.00" departPos="60.56" arrivalPos="3.64" arrivalSpeed="0.00" from="-686" to="-1769"/>
  <trip id="randUni537:1" type="random" depart="5664.00" departPos="31.77" arrivalPos="34.94" arrivalSpeed="0.00" from="-326" to="-1201"/>
  <trip id="randUni3635:1" type="random" depart="5672.00" departPos="80.60" arrivalPos="210.63" arrivalSpeed="0.00" from="-348" to="-1057"/>
  <trip id="randUni2164:1" type="random" depart="5712.00" departPos="95.55" arrivalPos="101.05" arrivalSpeed="0.00" from="698" to="1029"/>
  <trip id="randUni1952:1" type="random" depart="5865.00" departPos="73.89" arrivalPos="56.04" arrivalSpeed="0.00" from="-1345" to="-870"/>
  <trip id="randUni439:1" type="random" depart="5883.00" departPos="9.43" arrivalPos="56.99" arrivalSpeed="0.00" from="128" to="125"/>
  <trip id="randUni526:1" type="random" depart="5948.00" departPos="56.32" arrivalPos="22.67" arrivalSpeed="0.00" from="1005" to="381"/>
  <trip id="randUni919:1" type="random" depart="6045.00" departPos="118.02" arrivalPos="92.78" arrivalSpeed="0.00" from="3" to="1427"/>
  <trip id="randUni3585:1" type="random" depart="6055.00" departPos="89.23" arrivalPos="58.31" arrivalSpeed="0.00" from="11" to="1501"/>
  <trip id="randUni1365:1" type="random" depart="6061.00" departPos="123.86" arrivalPos="26.11" arrivalSpeed="0.00" from="608" to="1464"/>
  <trip id="randUni26:1" type="random" depart="6126.00" departPos="123.54" arrivalPos="56.47" arrivalSpeed="0.00" from="-505" to="-336"/>
  <trip id="randUni482:1" type="random" depart="6175.00" departPos="93.12" arrivalPos="22.56" arrivalSpeed="0.00" from="-496" to="-1359"/>
  <trip id="randUni3850:1" type="random" depart="6275.00" departPos="154.07" arrivalPos="66.03" arrivalSpeed="0.00" from="-1767" to="-728"/>
  <trip id="randUni580:1" type="random" depart="6304.00" departPos="81.18" arrivalPos="82.35" arrivalSpeed="0.00" from="-9" to="1033"/>
  <trip id="randUni2738:1" type="random" depart="6330.00" departPos="13.05" arrivalPos="186.78" arrivalSpeed="0.00" from="1201" to="1532"/>
  <trip id="randUni1195:1" type="random" depart="6386.00" departPos="195.94" arrivalPos="44.91" arrivalSpeed="0.00" from="840" to="333"/>
  <trip id="randUni217:1" type="random" depart="6413.00" departPos="19.44" arrivalPos="9.48" arrivalSpeed="0.00" from="1464" to="1882"/>
  <trip id="randUni3203:1" type="random" depart="6436.00" departPos="78.15" arrivalPos="11.42" arrivalSpeed="0.00" from="496" to="-1342"/>
  <trip id="randUni319:1" type="random" depart="6462.00" departPos="33.66" arrivalPos="72.79" arrivalSpeed="0.00" from="125" to="-1093"/>
  <trip id="randUni1818:1" type="random" depart="6593.00" departPos="21.92" arrivalPos="67.54" arrivalSpeed="0.00" from="1427" to="-1357"/>
  <trip id="randUni2463:1" type="random" depart="6601.00" departPos="44.84" arrivalPos="26.47" arrivalSpeed="0.00" from="-569" to="585"/>
  <trip id="randUni41:1" type="random" depart="6620.00" departPos="52.81" arrivalPos="66.02" arrivalSpeed="0.00" from="-1441" to="-1011"/>