<!-- generated on 2023-10-20 16:52:52 by Eclipse SUMO activitygen Version v1_17_0+0725-de92290f118
<configuration xmlns:xsi="http://www.w3.org/2001/XMLSchema-instance" xsi:noNamespaceSchemaLocation="http://sumo.dlr.de/xsd/activitygenConfiguration.xsd">

    <input>
        <net-file value="../sumo_config/SimpleRandom.net.xml"/>
        <stat-file value="../sumo_config/act.stat.xml"/>
    </input>

    <output>
        <output-file value="../sumo_config/test.xml"/>
    </output>

</configuration>
-->
<routes xmlns:xsi="http://www.w3.org/2001/XMLSchema-instance" xsi:noNamespaceSchemaLocation="http://sumo.dlr.de/xsd/routes_file.xsd">
  <route id="107_r" color="0.9686274509803922,0.7137254901960784,0.8235294117647058" edges="-686 -597 -505 -338 -123 -19 -9 11 698 1027 1201">
    <stop busStop="58" duration="30"/>
    <stop busStop="50" duration="30"/>
    <stop busStop="43" duration="30"/>
    <stop busStop="9" duration="30"/>
    <stop busStop="34" duration="30"/>
    <stop busStop="70" duration="30"/>
    <stop busStop="74" duration="30"/>
    <stop busStop="135" duration="30"/>
    <stop busStop="71" duration="30"/>
  </route>
  <route id="107" color="0.8901960784313725,0.4666666666666667,0.7607843137254902" edges="-1201 -1027 -698 -11 9 19 123 338 505 597 686">
    <stop busStop="1" duration="30"/>
    <stop busStop="65" duration="30"/>
    <stop busStop="4" duration="30"/>
    <stop busStop="140" duration="30"/>
    <stop busStop="104" duration="30"/>
    <stop busStop="79" duration="30"/>
    <stop busStop="113" duration="30"/>
    <stop busStop="120" duration="30"/>
    <stop busStop="128" duration="30"/>
  </route>
  <route id="106_r" color="0.7686274509803922,0.611764705882353,0.5803921568627451" edges="-601 -535 -365 -344 -125 121 326 -313 319 639 876 -1359 1363 1429 1523 1882">
    <stop busStop="54" duration="30"/>
    <stop busStop="46" duration="30"/>
    <stop busStop="44" duration="30"/>
    <stop busStop="10" duration="30"/>
    <stop busStop="78" duration="30"/>
    <stop busStop="110" duration="30"/>
    <stop busStop="37" duration="30"/>
    <stop busStop="108" duration="30"/>
    <stop busStop="132" duration="30"/>
    <stop busStop="139" duration="30"/>
    <stop busStop="14" duration="30"/>
    <stop busStop="85" duration="30"/>
    <stop busStop="90" duration="30"/>
    <stop busStop="95" duration="30"/>
  </route>
  <route id="106" color="0.5490196078431373,0.33725490196078434,0.29411764705882354" edges="-1882 -1523 -1429 -1363 1359 -876 -639 -319 313 -326 -121 125 344 365 535 601">
    <stop busStop="25" duration="30"/>
    <stop busStop="20" duration="30"/>
    <stop busStop="15" duration="30"/>
    <stop busStop="84" duration="30"/>
    <stop busStop="69" duration="30"/>
    <stop busStop="62" duration="30"/>
    <stop busStop="38" duration="30"/>
    <stop busStop="107" duration="30"/>
    <stop busStop="40" duration="30"/>
    <stop busStop="8" duration="30"/>
    <stop busStop="80" duration="30"/>
    <stop busStop="114" duration="30"/>
    <stop busStop="116" duration="30"/>
    <stop busStop="124" duration="30"/>
  </route>
  <route id="105_r" color="0.7725490196078432,0.6901960784313725,0.8352941176470589" edges="-1464 -1388 -533 -365 -344 -125 121 326 -313 319 621">
    <stop busStop="16" duration="30"/>
    <stop busStop="53" duration="30"/>
    <stop busStop="46" duration="30"/>
    <stop busStop="44" duration="30"/>
    <stop busStop="10" duration="30"/>
    <stop busStop="78" duration="30"/>
    <stop busStop="110" duration="30"/>
    <stop busStop="37" duration="30"/>
    <stop busStop="108" duration="30"/>
  </route>
  <route id="105" color="0.5803921568627451,0.403921568627451,0.7411764705882353" edges="-621 -319 313 -326 -121 125 344 365 533 1388 1464">
    <stop busStop="38" duration="30"/>
    <stop busStop="107" duration="30"/>
    <stop busStop="40" duration="30"/>
    <stop busStop="8" duration="30"/>
    <stop busStop="80" duration="30"/>
    <stop busStop="114" duration="30"/>
    <stop busStop="116" duration="30"/>
    <stop busStop="123" duration="30"/>
    <stop busStop="86" duration="30"/>
  </route>
  <route id="104_r" color="1.0,0.596078431372549,0.5882352941176471" edges="-1404 -1345 -1342 -1093 -1029 -728 -11 3 15 117 319 639 876 -1535 -1533 -1524 1526 1891">
    <stop busStop="13" duration="30"/>
    <stop busStop="12" duration="30"/>
    <stop busStop="3" duration="30"/>
    <stop busStop="2" duration="30"/>
    <stop busStop="66" duration="30"/>
    <stop busStop="4" duration="30"/>
    <stop busStop="106" duration="30"/>
    <stop busStop="93" duration="30"/>
    <stop busStop="75" duration="30"/>
    <stop busStop="108" duration="30"/>
    <stop busStop="132" duration="30"/>
    <stop busStop="139" duration="30"/>
    <stop busStop="29" duration="30"/>
    <stop busStop="28" duration="30"/>
    <stop busStop="26" duration="30"/>
    <stop busStop="97" duration="30"/>
  </route>
  <route id="104" color="0.8392156862745098,0.15294117647058825,0.1568627450980392" edges="-1891 -1526 1524 1533 1535 -876 -639 -319 -117 -15 -3 11 728 1029 1093 1342 1345 1404">
    <stop busStop="27" duration="30"/>
    <stop busStop="96" duration="30"/>
    <stop busStop="98" duration="30"/>
    <stop busStop="99" duration="30"/>
    <stop busStop="69" duration="30"/>
    <stop busStop="62" duration="30"/>
    <stop busStop="38" duration="30"/>
    <stop busStop="5" duration="30"/>
    <stop busStop="23" duration="30"/>
    <stop busStop="36" duration="30"/>
    <stop busStop="74" duration="30"/>
    <stop busStop="136" duration="30"/>
    <stop busStop="72" duration="30"/>
    <stop busStop="73" duration="30"/>
    <stop busStop="82" duration="30"/>
    <stop busStop="83" duration="30"/>
  </route>
  <route id="103_r" color="0.596078431372549,0.8745098039215686,0.5411764705882353" edges="-1483 -1425 1415 -523 -338 -123 -19 -9 11 728 1029 1093 1342 1345 1404">
    <stop busStop="19" duration="30"/>
    <stop busStop="88" duration="30"/>
    <stop busStop="52" duration="30"/>
    <stop busStop="43" duration="30"/>
    <stop busStop="9" duration="30"/>
    <stop busStop="34" duration="30"/>
    <stop busStop="70" duration="30"/>
    <stop busStop="74" duration="30"/>
    <stop busStop="136" duration="30"/>
    <stop busStop="72" duration="30"/>
    <stop busStop="73" duration="30"/>
    <stop busStop="82" duration="30"/>
    <stop busStop="83" duration="30"/>
  </route>
  <route id="103" color="0.17254901960784313,0.6274509803921569,0.17254901960784313" edges="-1404 -1345 -1342 -1093 -1029 -728 -11 9 19 123 338 523 -1415 1425 1483">
    <stop busStop="13" duration="30"/>
    <stop busStop="12" duration="30"/>
    <stop busStop="3" duration="30"/>
    <stop busStop="2" duration="30"/>
    <stop busStop="66" duration="30"/>
    <stop busStop="4" duration="30"/>
    <stop busStop="140" duration="30"/>
    <stop busStop="104" duration="30"/>
    <stop busStop="79" duration="30"/>
    <stop busStop="113" duration="30"/>
    <stop busStop="122" duration="30"/>
    <stop busStop="18" duration="30"/>
    <stop busStop="89" duration="30"/>
  </route>
  <route id="102_r" color="1.0,0.7333333333333333,0.47058823529411764" edges="-867 -618 -579 -383 -128 -25 17 38 319 639 876 -1359 1363 1429 1517 1797">
    <stop busStop="60" duration="30"/>
    <stop busStop="55" duration="30"/>
    <stop busStop="48" duration="30"/>
    <stop busStop="11" duration="30"/>
    <stop busStop="35" duration="30"/>
    <stop busStop="100" duration="30"/>
    <stop busStop="117" duration="30"/>
    <stop busStop="108" duration="30"/>
    <stop busStop="132" duration="30"/>
    <stop busStop="139" duration="30"/>
    <stop busStop="14" duration="30"/>
    <stop busStop="85" duration="30"/>
    <stop busStop="90" duration="30"/>
    <stop busStop="94" duration="30"/>
  </route>
  <route id="102" color="1.0,0.4980392156862745,0.054901960784313725" edges="-1797 -1517 -1429 -1363 1359 -876 -639 -319 -38 -17 25 128 383 579 618 867">
    <stop busStop="24" duration="30"/>
    <stop busStop="20" duration="30"/>
    <stop busStop="15" duration="30"/>
    <stop busStop="84" duration="30"/>
    <stop busStop="69" duration="30"/>
    <stop busStop="62" duration="30"/>
    <stop busStop="38" duration="30"/>
    <stop busStop="47" duration="30"/>
    <stop busStop="30" duration="30"/>
    <stop busStop="105" duration="30"/>
    <stop busStop="81" duration="30"/>
    <stop busStop="118" duration="30"/>
    <stop busStop="125" duration="30"/>
    <stop busStop="130" duration="30"/>
  </route>
  <route id="101_r" color="0.6823529411764706,0.7803921568627451,0.9098039215686274" edges="-496 -361 -336 338 517 -588 -325 -117 119 332 592 642 840">
    <stop busStop="45" duration="30"/>
    <stop busStop="42" duration="30"/>
    <stop busStop="113" duration="30"/>
    <stop busStop="121" duration="30"/>
    <stop busStop="56" duration="30"/>
    <stop busStop="39" duration="30"/>
    <stop busStop="5" duration="30"/>
    <stop busStop="76" duration="30"/>
    <stop busStop="111" duration="30"/>
    <stop busStop="127" duration="30"/>
    <stop busStop="133" duration="30"/>
  </route>
  <route id="101" color="0.12156862745098039,0.4666666666666667,0.7058823529411765" edges="-840 -642 -592 -332 -119 117 325 588 -517 -338 336 361 496">
    <stop busStop="63" duration="30"/>
    <stop busStop="57" duration="30"/>
    <stop busStop="41" duration="30"/>
    <stop busStop="6" duration="30"/>
    <stop busStop="75" duration="30"/>
    <stop busStop="109" duration="30"/>
    <stop busStop="126" duration="30"/>
    <stop busStop="51" duration="30"/>
    <stop busStop="43" duration="30"/>
    <stop busStop="112" duration="30"/>
    <stop busStop="115" duration="30"/>
  </route>
  <vType id="default" vClass="passenger" color="red"/>
  <vType id="random" vClass="passenger" color="blue"/>
  <vType id="bus" vClass="bus"/>
  <trip id="randUni1874:1" type="random" depart="44.00" departPos="102.05" arrivalPos="168.48" arrivalSpeed="0.00" from="-1494" to="-1523"/>
  <trip id="randUni2009:1" type="random" depart="62.00" departPos="8.37" arrivalPos="81.35" arrivalSpeed="0.00" from="-1501" to="-1535"/>
  <trip id="randUni2392:1" type="random" depart="81.00" departPos="76.43" arrivalPos="105.87" arrivalSpeed="0.00" from="1033" to="496"/>
  <trip id="randUni1248:1" type="random" depart="215.00" departPos="81.47" arrivalPos="42.64" arrivalSpeed="0.00" from="1464" to="837"/>
  <trip id="randUni1926:1" type="random" depart="289.00" departPos="84.34" arrivalPos="19.75" arrivalSpeed="0.00" from="597" to="13"/>
  <trip id="randUni1945:1" type="random" depart="343.00" departPos="97.76" arrivalPos="43.54" arrivalSpeed="0.00" from="-313" to="-1429"/>
  <trip id="randUni591:1" type="random" depart="345.00" departPos="217.19" arrivalPos="32.25" arrivalSpeed="0.00" from="1882" to="1431"/>
  <trip id="randUni1212:1" type="random" depart="348.00" departPos="138.12" arrivalPos="134.10" arrivalSpeed="0.00" from="-1775" to="383"/>
  <trip id="randUni702:1" type="random" depart="363.00" departPos="166.60" arrivalPos="64.10" arrivalSpeed="0.00" from="1427" to="333"/>
  <trip id="randUni2474:1" type="random" depart="612.00" departPos="166.49" arrivalPos="11.73" arrivalSpeed="0.00" from="623" to="1342"/>
  <trip id="randUni1324:1" type="random" depart="618.00" departPos="103.10" arrivalPos="190.15" arrivalSpeed="0.00" from="696" to="-639"/>
  <trip id="randUni2748:1" type="random" depart="631.00" departPos="30.42" arrivalPos="69.93" arrivalSpeed="0.00" from="504" to="-579"/>
  <trip id="randUni323:1" type="random" depart="770.00" departPos="45.04" arrivalPos="97.57" arrivalSpeed="0.00" from="-1501" to="-330"/>
  <trip id="randUni859:1" type="random" depart="812.00" departPos="160.92" arrivalPos="89.54" arrivalSpeed="0.00" from="1342" to="870"/>
  <trip id="randUni1728:1" type="random" depart="969.00" departPos="29.36" arrivalPos="87.82" arrivalSpeed="0.00" from="-332" to="-1359"/>
  <trip id="randUni2469:1" type="random" depart="1000.00" departPos="54.82" arrivalPos="97.96" arrivalSpeed="0.00" from="1429" to="336"/>
  <trip id="randUni812:1" type="random" depart="1108.00" departPos="96.37" arrivalPos="24.11" arrivalSpeed="0.00" from="1359" to="123"/>
  <trip id="randUni1152:1" type="random" depart="1131.00" departPos="35.52" arrivalPos="72.43" arrivalSpeed="0.00" from="523" to="-1429"/>
  <trip id="randUni1404:1" type="random" depart="1171.00" departPos="51.09" arrivalPos="28.89" arrivalSpeed="0.00" from="3" to="210"/>
  <trip id="randUni2040:1" type="random" depart="1180.00" departPos="140.66" arrivalPos="160.49" arrivalSpeed="0.00" from="1783" to="642"/>
  <trip id="randUni2390:1" type="random" depart="1193.00" departPos="149.61" arrivalPos="7.42" arrivalSpeed="0.00" from="1391" to="1323"/>
  <trip id="randUni97:1" type="random" depart="1219.00" departPos="99.72" arrivalPos="87.45" arrivalSpeed="0.00" from="-1363" to="1526"/>
  <trip id="randUni1547:1" type="random" depart="1228.00" departPos="111.87" arrivalPos="97.90" arrivalSpeed="0.00" from="674" to="1011"/>
  <trip id="randUni514:1" type="random" depart="1303.00" departPos="166.38" arrivalPos="4.86" arrivalSpeed="0.00" from="589" to="1501"/>
  <trip id="randUni2593:1" type="random" depart="1360.00" departPos="137.22" arrivalPos="223.70" arrivalSpeed="0.00" from="1769" to="-1373"/>
  <trip id="randUni1815:1" type="random" depart="1425.00" departPos="115.64" arrivalPos="83.39" arrivalSpeed="0.00" from="601" to="1011"/>
  <trip id="randUni2699:1" type="random" depart="1499.00" departPos="151.52" arrivalPos="84.97" arrivalSpeed="0.00" from="1771" to="-1523"/>
  <trip id="randUni1234:1" type="random" depart="1514.00" departPos="103.14" arrivalPos="26.39" arrivalSpeed="0.00" from="-732" to="210"/>
  <trip id="randUni596:1" type="random" depart="1530.00" departPos="18.80" arrivalPos="99.72" arrivalSpeed="0.00" from="848" to="313"/>
  <trip id="randUni2264:1" type="random" depart="1543.00" departPos="36.28" arrivalPos="187.79" arrivalSpeed="0.00" from="728" to="-642"/>
  <trip id="randUni1962:1" type="random" depart="1606.00" departPos="13.08" arrivalPos="9.76" arrivalSpeed="0.00" from="1359" to="-1427"/>
  <trip id="randUni872:1" type="random" depart="1661.00" departPos="191.55" arrivalPos="70.12" arrivalSpeed="0.00" from="-121" to="-612"/>
  <trip id="randUni2658:1" type="random" depart="1690.00" departPos="131.79" arrivalPos="164.23" arrivalSpeed="0.00" from="123" to="1517"/>
  <trip id="randUni1886:1" type="random" depart="1721.00" departPos="64.76" arrivalPos="104.21" arrivalSpeed="0.00" from="-608" to="-597"/>
  <trip id="randUni683:1" type="random" depart="1826.00" departPos="8.07" arrivalPos="73.80" arrivalSpeed="0.00" from="-848" to="-533"/>
  <trip id="randUni907:1" type="random" depart="1831.00" departPos="63.86" arrivalPos="111.54" arrivalSpeed="0.00" from="-64" to="-1427"/>
  <trip id="randUni708:1" type="random" depart="1870.00" departPos="117.97" arrivalPos="12.43" arrivalSpeed="0.00" from="1425" to="128"/>
  <trip id="randUni1155:1" type="random" depart="1994.00" departPos="82.68" arrivalPos="27.91" arrivalSpeed="0.00" from="-601" to="-840"/>
  <trip id="randUni612:1" type="random" depart="2057.00" departPos="53.37" arrivalPos="217.90" arrivalSpeed="0.00" from="119" to="589"/>
  <trip id="randUni2379:1" type="random" depart="2304.00" departPos="24.17" arrivalPos="21.57" arrivalSpeed="0.00" from="381" to="1373"/>
  <trip id="randUni1177:1" type="random" depart="2325.00" departPos="157.67" arrivalPos="122.89" arrivalSpeed="0.00" from="-1323" to="-1029"/>
  <trip id="randUni2327:1" type="random" depart="2361.00" departPos="64.99" arrivalPos="104.35" arrivalSpeed="0.00" from="601" to="-597"/>
  <trip id="randUni55:1" type="random" depart="2389.00" departPos="123.86" arrivalPos="3.68" arrivalSpeed="0.00" from="-333" to="-848"/>
  <trip id="randUni1647:1" type="random" depart="2391.00" departPos="29.48" arrivalPos="94.15" arrivalSpeed="0.00" from="-1535" to="1483"/>
  <trip id="randUni1268:1" type="random" depart="2483.00" departPos="156.58" arrivalPos="6.48" arrivalSpeed="0.00" from="1526" to="1523"/>
  <trip id="randUni1571:1" type="random" depart="2548.00" departPos="38.03" arrivalPos="111.14" arrivalSpeed="0.00" from="-1883" to="569"/>
  <trip id="randUni17:1" type="random" depart="2555.00" departPos="101.58" arrivalPos="116.94" arrivalSpeed="0.00" from="-1517" to="-325"/>
  <trip id="randUni631:1" type="random" depart="2583.00" departPos="63.29" arrivalPos="70.22" arrivalSpeed="0.00" from="348" to="-588"/>
  <trip id="randUni1214:1" type="random" depart="2636.00" departPos="17.99" arrivalPos="97.72" arrivalSpeed="0.00" from="-1517" to="349"/>
  <trip id="randUni1866:1" type="random" depart="2777.00" departPos="125.44" arrivalPos="7.17" arrivalSpeed="0.00" from="356" to="1493"/>
  <trip id="randUni1526:1" type="random" depart="2813.00" departPos="160.08" arrivalPos="15.15" arrivalSpeed="0.00" from="-356" to="1359"/>
  <trip id="randUni1211:1" type="random" depart="2833.00" departPos="130.34" arrivalPos="184.79" arrivalSpeed="0.00" from="-608" to="-1447"/>
  <trip id="randUni884:1" type="random" depart="2836.00" departPos="45.56" arrivalPos="46.35" arrivalSpeed="0.00" from="126" to="-313"/>
  <trip id="randUni160:1" type="random" depart="2909.00" departPos="25.17" arrivalPos="162.53" arrivalSpeed="0.00" from="-1093" to="-1767"/>
  <trip id="randUni2368:1" type="random" depart="2909.00" departPos="82.02" arrivalPos="31.04" arrivalSpeed="0.00" from="-601" to="-579"/>
  <trip id="randUni771:1" type="random" depart="2923.00" departPos="90.05" arrivalPos="108.29" arrivalSpeed="0.00" from="1883" to="734"/>
  <trip id="randUni2215:1" type="random" depart="3053.00" departPos="135.09" arrivalPos="159.39" arrivalSpeed="0.00" from="569" to="1447"/>
  <trip id="randUni837:1" type="random" depart="3104.00" departPos="60.34" arrivalPos="47.60" arrivalSpeed="0.00" from="-116" to="-1441"/>
  <trip id="randUni104:1" type="random" depart="3105.00" departPos="192.85" arrivalPos="160.20" arrivalSpeed="0.00" from="-1011" to="1373"/>
  <trip id="randUni1020:1" type="random" depart="3115.00" departPos="128.69" arrivalPos="108.70" arrivalSpeed="0.00" from="1526" to="-601"/>
  <trip id="randUni2871:1" type="random" depart="3127.00" departPos="153.81" arrivalPos="85.32" arrivalSpeed="0.00" from="730" to="336"/>
  <trip id="randUni1890:1" type="random" depart="3197.00" departPos="152.03" arrivalPos="56.24" arrivalSpeed="0.00" from="-1499" to="-344"/>
  <trip id="randUni846:1" type="random" depart="3235.00" departPos="79.86" arrivalPos="67.21" arrivalSpeed="0.00" from="696" to="1429"/>
  <trip id="randUni2065:1" type="random" depart="3494.00" departPos="33.19" arrivalPos="235.11" arrivalSpeed="0.00" from="-1483" to="-1882"/>
  <trip id="randUni619:1" type="random" depart="3574.00" departPos="77.43" arrivalPos="59.86" arrivalSpeed="0.00" from="-612" to="1774"/>
  <trip id="randUni2376:1" type="random" depart="3575.00" departPos="1.09" arrivalPos="47.86" arrivalSpeed="0.00" from="1357" to="579"/>
  <trip id="randUni1810:1" type="random" depart="3621.00" departPos="79.28" arrivalPos="18.92" arrivalSpeed="0.00" from="1342" to="1499"/>
  <trip id="randUni807:1" type="random" depart="3728.00" departPos="123.03" arrivalPos="71.06" arrivalSpeed="0.00" from="-1415" to="-356"/>
  <trip id="randUni2069:1" type="random" depart="3756.00" departPos="39.53" arrivalPos="124.25" arrivalSpeed="0.00" from="1524" to="588"/>
  <trip id="randUni2716:1" type="random" depart="3761.00" departPos="77.87" arrivalPos="99.25" arrivalSpeed="0.00" from="-1323" to="-613"/>
  <trip id="randUni1182:1" type="random" depart="3791.00" departPos="78.54" arrivalPos="85.72" arrivalSpeed="0.00" from="-1517" to="867"/>
  <trip id="randUni1610:1" type="random" depart="3866.00" departPos="64.75" arrivalPos="114.20" arrivalSpeed="0.00" from="-1767" to="1523"/>
  <trip id="randUni2287:1" type="random" depart="3904.00" departPos="110.23" arrivalPos="76.25" arrivalSpeed="0.00" from="882" to="-1798"/>
  <trip id="randUni2872:1" type="random" depart="3960.00" departPos="3.69" arrivalPos="106.99" arrivalSpeed="0.00" from="-1773" to="1769"/>
  <trip id="randUni233:1" type="random" depart="3980.00" departPos="42.04" arrivalPos="135.06" arrivalSpeed="0.00" from="650" to="-1533"/>
  <trip id="randUni1871:1" type="random" depart="4222.00" departPos="50.76" arrivalPos="7.73" arrivalSpeed="0.00" from="-1771" to="383"/>
  <trip id="randUni707:1" type="random" depart="4319.00" departPos="60.81" arrivalPos="185.23" arrivalSpeed="0.00" from="-846" to="1201"/>
  <trip id="randUni1528:1" type="random" depart="4330.00" departPos="51.87" arrivalPos="219.96" arrivalSpeed="0.00" from="119" to="-1027"/>
  <trip id="randUni861:1" type="random" depart="4369.00" departPos="162.80" arrivalPos="176.49" arrivalSpeed="0.00" from="730" to="125"/>
  <trip id="randUni2654:1" type="random" depart="4419.00" departPos="22.36" arrivalPos="31.89" arrivalSpeed="0.00" from="-579" to="848"/>
  <trip id="randUni315:1" type="random" depart="4453.00" departPos="125.73" arrivalPos="88.11" arrivalSpeed="0.00" from="-1882" to="-1057"/>
  <trip id="randUni1295:1" type="random" depart="4539.00" departPos="66.74" arrivalPos="155.23" arrivalSpeed="0.00" from="650" to="-686"/>
  <trip id="randUni1891:1" type="random" depart="4646.00" departPos="82.48" arrivalPos="187.20" arrivalSpeed="0.00" from="349" to="1027"/>
  <trip id="randUni398:1" type="random" depart="4712.00" departPos="45.32" arrivalPos="56.13" arrivalSpeed="0.00" from="-1427" to="592"/>
  <trip id="randUni2458:1" type="random" depart="4766.00" departPos="102.28" arrivalPos="93.59" arrivalSpeed="0.00" from="-1494" to="1343"/>
  <trip id="randUni904:1" type="random" depart="4844.00" departPos="11.56" arrivalPos="94.42" arrivalSpeed="0.00" from="11" to="-1093"/>
  <trip id="randUni2950:1" type="random" depart="4906.00" departPos="147.18" arrivalPos="151.81" arrivalSpeed="0.00" from="-1447" to="-1342"/>
  <trip id="randUni1805:1" type="random" depart="5114.00" departPos="110.24" arrivalPos="24.88" arrivalSpeed="0.00" from="-325" to="-1523"/>
  <trip id="randUni1842:1" type="random" depart="5120.00" departPos="156.98" arrivalPos="173.51" arrivalSpeed="0.00" from="1427" to="-1798"/>
  <trip id="randUni765:1" type="random" depart="5156.00" departPos="160.32" arrivalPos="140.60" arrivalSpeed="0.00" from="1425" to="116"/>
  <trip id="randUni1032:1" type="random" depart="5178.00" departPos="81.01" arrivalPos="146.76" arrivalSpeed="0.00" from="505" to="123"/>
  <trip id="randUni2602:1" type="random" depart="5223.00" departPos="219.26" arrivalPos="109.48" arrivalSpeed="0.00" from="17" to="1526"/>
  <trip id="randUni1835:1" type="random" depart="5227.00" departPos="78.51" arrivalPos="63.35" arrivalSpeed="0.00" from="381" to="-1199"/>
  <trip id="randUni2144:1" type="random" depart="5246.00" departPos="146.54" arrivalPos="45.55" arrivalSpeed="0.00" from="-9" to="-64"/>
  <trip id="randUni404:1" type="random" depart="5324.00" departPos="27.05" arrivalPos="121.54" arrivalSpeed="0.00" from="608" to="-601"/>
  <trip id="randUni663:1" type="random" depart="5420.00" departPos="8.11" arrivalPos="12.55" arrivalSpeed="0.00" from="1342" to="-344"/>
  <trip id="randUni1179:1" type="random" depart="5491.00" departPos="90.06" arrivalPos="178.98" arrivalSpeed="0.00" from="121" to="-867"/>
  <trip id="randUni2027:1" type="random" depart="5508.00" departPos="60.66" arrivalPos="129.80" arrivalSpeed="0.00" from="1404" to="-882"/>
  <trip id="randUni383:1" type="random" depart="5550.00" departPos="123.75" arrivalPos="179.08" arrivalSpeed="0.00" from="686" to="1499"/>
  <trip id="randUni1181:1" type="random" depart="5562.00" departPos="82.49" arrivalPos="32.70" arrivalSpeed="0.00" from="-344" to="116"/>
  <trip id="randUni2533:1" type="random" depart="5766.00" departPos="199.60" arrivalPos="218.45" arrivalSpeed="0.00" from="1494" to="1783"/>
  <trip id="randUni2749:1" type="random" depart="5802.00" departPos="164.84" arrivalPos="82.18" arrivalSpeed="0.00" from="-1415" to="1798"/>
  <trip id="randUni135:1" type="random" depart="5905.00" departPos="63.87" arrivalPos="44.06" arrivalSpeed="0.00" from="338" to="-730"/>
  <trip id="randUni1574:1" type="random" depart="5994.00" departPos="168.78" arrivalPos="99.49" arrivalSpeed="0.00" from="579" to="1359"/>
  <trip id="randUni722:1" type="random" depart="6023.00" departPos="88.18" arrivalPos="110.98" arrivalSpeed="0.00" from="333" to="-348"/>
  <trip id="randUni1070:1" type="random" depart="6030.00" departPos="69.53" arrivalPos="107.57" arrivalSpeed="0.00" from="-1517" to="349"/>
  <trip id="randUni2939:1" type="random" depart="6087.00" departPos="41.24" arrivalPos="187.17" arrivalSpeed="0.00" from="-1345" to="1447"/>
  <trip id="randUni776:1" type="random" depart="6182.00" departPos="78.12" arrivalPos="124.56" arrivalSpeed="0.00" from="1493" to="876"/>
  <trip id="randUni677:1" type="random" depart="6266.00" departPos="96.87" arrivalPos="28.62" arrivalSpeed="0.00" from="-613" to="313"/>
  <trip id="randUni1792:1" type="random" depart="6371.00" departPos="117.04" arrivalPos="85.72" arrivalSpeed="0.00" from="-625" to="-1524"/>
  <trip id="randUni2456:1" type="random" depart="6386.00" departPos="14.00" arrivalPos="42.24" arrivalSpeed="0.00" from="138" to="-117"/>
  <trip id="randUni528:1" type="random" depart="6393.00" departPos="17.07" arrivalPos="118.03" arrivalSpeed="0.00" from="1523" to="356"/>
  <trip id="randUni2034:1" type="random" depart="6432.00" departPos="86.22" arrivalPos="81.60" arrivalSpeed="0.00" from="-123" to="-1464"/>
  <trip id="randUni1095:1" type="random" depart="6470.00" departPos="106.92" arrivalPos="119.26" arrivalSpeed="0.00" from="846" to="-618"/>
  <trip id="randUni2557:1" type="random" depart="6567.00" departPos="25.17" arrivalPos="14.24" arrivalSpeed="0.00" from="-19" to="1033"/>
  <trip id="randUni2866:1" type="random" depart="6581.00" departPos="76.89" arrivalPos="101.07" arrivalSpeed="0.00" from="138" to="1427"/>
  <trip id="randUni1741:1" type="random" depart="6589.00" departPos="143.72" arrivalPos="8.16" arrivalSpeed="0.00" from="492" to="349"/>
  <trip id="randUni282:1" type="random" depart="6643.00" departPos="56.33" arrivalPos="74.76" arrivalSpeed="0.00" from="-1404" to="1029"/>
  <trip id="randUni2173:1" type="random" depart="6645.00" departPos="10.68" arrivalPos="129.46" arrivalSpeed="0.00" from="1493" to="-330"/>
  <trip id="randUni2784:1" type="random" depart="6665.00" departPos="123.72" arrivalPos="33.12" arrivalSpeed="0.00" from="-13" to="-117"/>
  <trip id="randUni312:1" type="random" depart="6666.00" departPos="41.50" arrivalPos="103.54" arrivalSpeed="0.00" from="728" to="-1323"/>
  <trip id="randUni2208:1" type="random" depart="6770.00" departPos="52.16" arrivalPos="7.93" arrivalSpeed="0.00" from="-13" to="-592"/>
  <trip id="randUni2677:1" type="random" depart="6816.00" departPos="68.52" arrivalPos="93.56" arrivalSpeed="0.00" from="-837" to="-728"/>
  <trip id="randUni394:1" type="random" depart="6857.00" departPos="4.01" arrivalPos="76.88" arrivalSpeed="0.00" from="1499" to="1199"/>
  <trip id="randUni197:1" type="random" depart="6900.00" departPos="105.35" arrivalPos="157.70" arrivalSpeed="0.00" from="-119" to="730"/>
  <trip id="randUni133:1" type="random" depart="6930.00" departPos="38.88" arrivalPos="9.64" arrivalSpeed="0.00" from="210" to="-728"/>
  <trip id="randUni2908:1" type="random" depart="6979.00" departPos="142.54" arrivalPos="48.24" arrivalSpeed="0.00" from="325" to="-333"/>
  <trip id="randUni504:1" type="random" depart="6998.00" departPos="79.14" arrivalPos="125.75" arrivalSpeed="0.00" from="880" to="588"/>
  <trip id="randUni2138:1" type="random" depart="7124.00" departPos="127.94" arrivalPos="115.47" arrivalSpeed="0.00" from="-1798" to="119"/>
  <trip id="randUni249:1" type="random" depart="7146.00" departPos="49.24" arrivalPos="113.26" arrivalSpeed="0.00" from="-870" to="1396"/>
  <trip id="randUni369:1" type="random" depart="7169.00" departPos="31.00" arrivalPos="188.46" arrivalSpeed="0.00" from="1798" to="-577"/>
  <trip id="randUni1656:1" type="random" depart="7281.00" departPos="38.39" arrivalPos="186.35" arrivalSpeed="0.00" from="-1524" to="535"/>
  <trip id="randUni172:1" type="random" depart="7283.00" departPos="110.44" arrivalPos="93.26" arrivalSpeed="0.00" from="1057" to="1033"/>
  <trip id="randUni587:1" type="random" depart="7333.00" departPos="55.52" arrivalPos="82.01" arrivalSpeed="0.00" from="1883" to="-1199"/>
  <trip id="randUni2745:1" type="random" depart="7334.00" departPos="196.25" arrivalPos="98.79" arrivalSpeed="0.00" from="1441" to="-1523"/>
  <trip id="randUni2730:1" type="random" depart="7393.00" departPos="98.76" arrivalPos="152.56" arrivalSpeed="0.00" from="-128" to="1388"/>
  <trip id="randUni83:1" type="random" depart="7528.00" departPos="80.74" arrivalPos="97.48" arrivalSpeed="0.00" from="379" to="1415"/>
  <trip id="randUni50:1" type="random" depart="7531.00" departPos="78.45" arrivalPos="52.45" arrivalSpeed="0.00" from="870" to="-585"/>
  <trip id="randUni1254:1" type="random" depart="7759.00" departPos="161.09" arrivalPos="158.94" arrivalSpeed="0.00" from="840" to="1773"/>
  <trip id="randUni1596:1" type="random" depart="7798.00" departPos="27.56" arrivalPos="35.60" arrivalSpeed="0.00" from="-734" to="-614"/>
  <trip id="randUni785:1" type="random" depart="7810.00" departPos="31.59" arrivalPos="141.72" arrivalSpeed="0.00" from="-533" to="579"/>
  <trip id="randUni2320:1" type="random" depart="7871.00" departPos="5.32" arrivalPos="155.60" arrivalSpeed="0.00" from="-1535" to="-517"/>
  <trip id="randUni1406:1" type="random" depart="7930.00" departPos="102.03" arrivalPos="127.14" arrivalSpeed="0.00" from="1771" to="-15"/>
  <trip id="randUni930:1" type="random" depart="8003.00" departPos="91.72" arrivalPos="19.69" arrivalSpeed="0.00" from="-379" to="-336"/>