<!-- generated on 2023-09-22 09:27:46 by Eclipse SUMO activitygen Version 1.15.0
<configuration xmlns:xsi="http://www.w3.org/2001/XMLSchema-instance" xsi:noNamespaceSchemaLocation="http://sumo.dlr.de/xsd/activitygenConfiguration.xsd">

    <input>
        <net-file value="../sumo_config/SimpleRandom.net.xml"/>
        <stat-file value="../sumo_config/act.stat.xml"/>
    </input>

    <output>
        <output-file value="../sumo_config/test.xml"/>
    </output>

</configuration>
-->
<routes xmlns:xsi="http://www.w3.org/2001/XMLSchema-instance" xsi:noNamespaceSchemaLocation="http://sumo.dlr.de/xsd/routes_file.xsd">
  <route id="107_r" color="0.9686274509803922,0.7137254901960784,0.8235294117647058" edges="-686 -597 -505 -338 -123 -19 -9 11 698 1027 1201">
    <stop busStop="106" duration="30"/>
    <stop busStop="93" duration="30"/>
    <stop busStop="79" duration="30"/>
    <stop busStop="15" duration="30"/>
    <stop busStop="67" duration="30"/>
    <stop busStop="140" duration="30"/>
    <stop busStop="148" duration="30"/>
    <stop busStop="265" duration="30"/>
    <stop busStop="143" duration="30"/>
  </route>
  <route id="107" color="0.8901960784313725,0.4666666666666667,0.7607843137254902" edges="-1201 -1027 -698 -11 9 19 123 338 505 597 686">
    <stop busStop="3" duration="30"/>
    <stop busStop="125" duration="30"/>
    <stop busStop="8" duration="30"/>
    <stop busStop="280" duration="30"/>
    <stop busStop="207" duration="30"/>
    <stop busStop="155" duration="30"/>
    <stop busStop="219" duration="30"/>
    <stop busStop="233" duration="30"/>
    <stop busStop="246" duration="30"/>
  </route>
  <route id="106_r" color="0.7686274509803922,0.611764705882353,0.5803921568627451" edges="-601 -535 -365 -344 -125 121 326 -313 319 639 876 -1359 1363 1429 1523 1882">
    <stop busStop="97" duration="30"/>
    <stop busStop="85" duration="30"/>
    <stop busStop="80" duration="30"/>
    <stop busStop="16" duration="30"/>
    <stop busStop="154" duration="30"/>
    <stop busStop="214" duration="30"/>
    <stop busStop="71" duration="30"/>
    <stop busStop="212" duration="30"/>
    <stop busStop="256" duration="30"/>
    <stop busStop="277" duration="30"/>
    <stop busStop="25" duration="30"/>
    <stop busStop="166" duration="30"/>
    <stop busStop="176" duration="30"/>
    <stop busStop="188" duration="30"/>
  </route>
  <route id="106" color="0.5490196078431373,0.33725490196078434,0.29411764705882354" edges="-1882 -1523 -1429 -1363 1359 -876 -639 -319 313 -326 -121 125 344 365 535 601">
    <stop busStop="48" duration="30"/>
    <stop busStop="36" duration="30"/>
    <stop busStop="26" duration="30"/>
    <stop busStop="165" duration="30"/>
    <stop busStop="137" duration="30"/>
    <stop busStop="116" duration="30"/>
    <stop busStop="72" duration="30"/>
    <stop busStop="211" duration="30"/>
    <stop busStop="74" duration="30"/>
    <stop busStop="14" duration="30"/>
    <stop busStop="156" duration="30"/>
    <stop busStop="220" duration="30"/>
    <stop busStop="225" duration="30"/>
    <stop busStop="237" duration="30"/>
  </route>
  <route id="105_r" color="0.7725490196078432,0.6901960784313725,0.8352941176470589" edges="-1464 -1388 -533 -365 -344 -125 121 326 -313 319 621">
    <stop busStop="29" duration="30"/>
    <stop busStop="96" duration="30"/>
    <stop busStop="85" duration="30"/>
    <stop busStop="80" duration="30"/>
    <stop busStop="16" duration="30"/>
    <stop busStop="154" duration="30"/>
    <stop busStop="214" duration="30"/>
    <stop busStop="71" duration="30"/>
    <stop busStop="212" duration="30"/>
  </route>
  <route id="105" color="0.5803921568627451,0.403921568627451,0.7411764705882353" edges="-621 -319 313 -326 -121 125 344 365 533 1388 1464">
    <stop busStop="72" duration="30"/>
    <stop busStop="211" duration="30"/>
    <stop busStop="74" duration="30"/>
    <stop busStop="14" duration="30"/>
    <stop busStop="156" duration="30"/>
    <stop busStop="220" duration="30"/>
    <stop busStop="225" duration="30"/>
    <stop busStop="236" duration="30"/>
    <stop busStop="169" duration="30"/>
  </route>
  <route id="104_r" color="1.0,0.596078431372549,0.5882352941176471" edges="-1404 -1345 -1342 -1093 -1029 -728 -11 3 15 117 319 639 876 -1535 -1533 -1524 1526 1891">
    <stop busStop="23" duration="30"/>
    <stop busStop="21" duration="30"/>
    <stop busStop="7" duration="30"/>
    <stop busStop="4" duration="30"/>
    <stop busStop="127" duration="30"/>
    <stop busStop="8" duration="30"/>
    <stop busStop="210" duration="30"/>
    <stop busStop="185" duration="30"/>
    <stop busStop="150" duration="30"/>
    <stop busStop="212" duration="30"/>
    <stop busStop="256" duration="30"/>
    <stop busStop="277" duration="30"/>
    <stop busStop="53" duration="30"/>
    <stop busStop="52" duration="30"/>
    <stop busStop="49" duration="30"/>
    <stop busStop="190" duration="30"/>
  </route>
  <route id="104" color="0.8392156862745098,0.15294117647058825,0.1568627450980392" edges="-1891 -1526 1524 1533 1535 -876 -639 -319 -117 -15 -3 11 728 1029 1093 1342 1345 1404">
    <stop busStop="50" duration="30"/>
    <stop busStop="189" duration="30"/>
    <stop busStop="192" duration="30"/>
    <stop busStop="193" duration="30"/>
    <stop busStop="137" duration="30"/>
    <stop busStop="116" duration="30"/>
    <stop busStop="72" duration="30"/>
    <stop busStop="10" duration="30"/>
    <stop busStop="45" duration="30"/>
    <stop busStop="70" duration="30"/>
    <stop busStop="148" duration="30"/>
    <stop busStop="267" duration="30"/>
    <stop busStop="144" duration="30"/>
    <stop busStop="147" duration="30"/>
    <stop busStop="161" duration="30"/>
    <stop busStop="163" duration="30"/>
  </route>
  <route id="103_r" color="0.596078431372549,0.8745098039215686,0.5411764705882353" edges="-1483 -1425 1415 -589 -325 -117 -15 -3 11 728 1029 1093 1342 1345 1404">
    <stop busStop="34" duration="30"/>
    <stop busStop="173" duration="30"/>
    <stop busStop="104" duration="30"/>
    <stop busStop="73" duration="30"/>
    <stop busStop="10" duration="30"/>
    <stop busStop="45" duration="30"/>
    <stop busStop="70" duration="30"/>
    <stop busStop="148" duration="30"/>
    <stop busStop="267" duration="30"/>
    <stop busStop="144" duration="30"/>
    <stop busStop="147" duration="30"/>
    <stop busStop="161" duration="30"/>
    <stop busStop="163" duration="30"/>
  </route>
  <route id="103" color="0.17254901960784313,0.6274509803921569,0.17254901960784313" edges="-1404 -1345 -1342 -1093 -1029 -728 -11 3 15 117 325 589 -1415 1425 1483">
    <stop busStop="23" duration="30"/>
    <stop busStop="21" duration="30"/>
    <stop busStop="7" duration="30"/>
    <stop busStop="4" duration="30"/>
    <stop busStop="127" duration="30"/>
    <stop busStop="8" duration="30"/>
    <stop busStop="210" duration="30"/>
    <stop busStop="185" duration="30"/>
    <stop busStop="150" duration="30"/>
    <stop busStop="213" duration="30"/>
    <stop busStop="244" duration="30"/>
    <stop busStop="33" duration="30"/>
    <stop busStop="174" duration="30"/>
  </route>
  <route id="102_r" color="1.0,0.7333333333333333,0.47058823529411764" edges="-867 -618 -579 -383 -128 -25 17 38 319 639 876 -1359 1363 1429 1517 1797">
    <stop busStop="112" duration="30"/>
    <stop busStop="101" duration="30"/>
    <stop busStop="89" duration="30"/>
    <stop busStop="18" duration="30"/>
    <stop busStop="69" duration="30"/>
    <stop busStop="194" duration="30"/>
    <stop busStop="227" duration="30"/>
    <stop busStop="212" duration="30"/>
    <stop busStop="256" duration="30"/>
    <stop busStop="277" duration="30"/>
    <stop busStop="25" duration="30"/>
    <stop busStop="166" duration="30"/>
    <stop busStop="176" duration="30"/>
    <stop busStop="187" duration="30"/>
  </route>
  <route id="102" color="1.0,0.4980392156862745,0.054901960784313725" edges="-1797 -1517 -1429 -1363 1359 -876 -639 -319 -38 -17 25 128 383 579 618 867">
    <stop busStop="47" duration="30"/>
    <stop busStop="36" duration="30"/>
    <stop busStop="26" duration="30"/>
    <stop busStop="165" duration="30"/>
    <stop busStop="137" duration="30"/>
    <stop busStop="116" duration="30"/>
    <stop busStop="72" duration="30"/>
    <stop busStop="87" duration="30"/>
    <stop busStop="54" duration="30"/>
    <stop busStop="209" duration="30"/>
    <stop busStop="158" duration="30"/>
    <stop busStop="229" duration="30"/>
    <stop busStop="241" duration="30"/>
    <stop busStop="252" duration="30"/>
  </route>
  <route id="101_r" color="0.6823529411764706,0.7803921568627451,0.9098039215686274" edges="-496 -361 -336 338 517 -588 -325 -117 119 332 592 642 840">
    <stop busStop="84" duration="30"/>
    <stop busStop="78" duration="30"/>
    <stop busStop="219" duration="30"/>
    <stop busStop="234" duration="30"/>
    <stop busStop="103" duration="30"/>
    <stop busStop="73" duration="30"/>
    <stop busStop="10" duration="30"/>
    <stop busStop="151" duration="30"/>
    <stop busStop="216" duration="30"/>
    <stop busStop="245" duration="30"/>
    <stop busStop="258" duration="30"/>
  </route>
  <route id="101" color="0.12156862745098039,0.4666666666666667,0.7058823529411765" edges="-840 -642 -592 -332 -119 117 325 588 -517 -338 336 361 496">
    <stop busStop="118" duration="30"/>
    <stop busStop="105" duration="30"/>
    <stop busStop="76" duration="30"/>
    <stop busStop="11" duration="30"/>
    <stop busStop="150" duration="30"/>
    <stop busStop="213" duration="30"/>
    <stop busStop="243" duration="30"/>
    <stop busStop="94" duration="30"/>
    <stop busStop="79" duration="30"/>
    <stop busStop="218" duration="30"/>
    <stop busStop="224" duration="30"/>
  </route>
  <vType id="default" vClass="passenger" color="red"/>
  <vType id="random" vClass="passenger" color="blue"/>
  <vType id="bus" vClass="bus"/>
  <trip id="randUni3690:1" type="random" depart="52.00" departPos="207.09" arrivalPos="33.57" arrivalSpeed="0.00" from="-1532" to="356"/>
  <trip id="randUni2234:1" type="random" depart="147.00" departPos="28.82" arrivalPos="127.49" arrivalSpeed="0.00" from="-579" to="-612"/>
  <trip id="randUni3971:1" type="random" depart="151.00" departPos="132.23" arrivalPos="12.54" arrivalSpeed="0.00" from="19" to="319"/>
  <trip id="randUni848:1" type="random" depart="285.00" departPos="22.32" arrivalPos="165.66" arrivalSpeed="0.00" from="-7" to="-138"/>
  <trip id="randUni3065:1" type="random" depart="358.00" departPos="175.04" arrivalPos="80.40" arrivalSpeed="0.00" from="-17" to="-330"/>
  <trip id="randUni2265:1" type="random" depart="423.00" departPos="188.38" arrivalPos="39.17" arrivalSpeed="0.00" from="-1775" to="1773"/>
  <trip id="randUni482:1" type="random" depart="466.00" departPos="46.21" arrivalPos="33.44" arrivalSpeed="0.00" from="25" to="533"/>
  <trip id="randUni142:1" type="random" depart="507.00" departPos="82.32" arrivalPos="111.34" arrivalSpeed="0.00" from="-570" to="116"/>
  <trip id="randUni884:1" type="random" depart="518.00" departPos="20.18" arrivalPos="92.81" arrivalSpeed="0.00" from="1429" to="585"/>
  <trip id="randUni1842:1" type="random" depart="523.00" departPos="20.95" arrivalPos="58.21" arrivalSpeed="0.00" from="-11" to="1483"/>
  <trip id="randUni1633:1" type="random" depart="532.00" departPos="47.41" arrivalPos="42.54" arrivalSpeed="0.00" from="1033" to="365"/>
  <trip id="randUni1362:1" type="random" depart="538.00" departPos="123.69" arrivalPos="48.76" arrivalSpeed="0.00" from="349" to="1783"/>
  <trip id="randUni2097:1" type="random" depart="576.00" departPos="63.36" arrivalPos="194.98" arrivalSpeed="0.00" from="-870" to="589"/>
  <trip id="randUni839:1" type="random" depart="751.00" departPos="31.90" arrivalPos="36.70" arrivalSpeed="0.00" from="348" to="-535"/>
  <trip id="randUni2347:1" type="random" depart="823.00" departPos="134.86" arrivalPos="88.03" arrivalSpeed="0.00" from="-608" to="349"/>
  <trip id="randUni368:1" type="random" depart="831.00" departPos="150.72" arrivalPos="79.52" arrivalSpeed="0.00" from="-17" to="-1033"/>
  <trip id="randUni1589:1" type="random" depart="839.00" departPos="36.32" arrivalPos="65.23" arrivalSpeed="0.00" from="-684" to="-533"/>
  <trip id="randUni2243:1" type="random" depart="926.00" departPos="49.56" arrivalPos="19.67" arrivalSpeed="0.00" from="-1533" to="1391"/>
  <trip id="randUni3120:1" type="random" depart="940.00" departPos="19.37" arrivalPos="84.67" arrivalSpeed="0.00" from="-1396" to="496"/>
  <trip id="randUni2143:1" type="random" depart="1071.00" departPos="7.87" arrivalPos="12.93" arrivalSpeed="0.00" from="1404" to="650"/>
  <trip id="randUni2555:1" type="random" depart="1073.00" departPos="120.44" arrivalPos="63.44" arrivalSpeed="0.00" from="-7" to="-9"/>
  <trip id="randUni76:1" type="random" depart="1114.00" departPos="46.54" arrivalPos="56.11" arrivalSpeed="0.00" from="-1499" to="-870"/>
  <trip id="randUni4089:1" type="random" depart="1223.00" departPos="95.58" arrivalPos="4.45" arrivalSpeed="0.00" from="-570" to="-9"/>
  <trip id="randUni1049:1" type="random" depart="1311.00" departPos="79.11" arrivalPos="93.68" arrivalSpeed="0.00" from="-381" to="-642"/>
  <trip id="randUni1130:1" type="random" depart="1320.00" departPos="131.60" arrivalPos="75.49" arrivalSpeed="0.00" from="38" to="-1464"/>
  <trip id="randUni1477:1" type="random" depart="1357.00" departPos="184.96" arrivalPos="1.71" arrivalSpeed="0.00" from="1323" to="-383"/>
  <trip id="randUni3029:1" type="random" depart="1421.00" departPos="47.39" arrivalPos="53.32" arrivalSpeed="0.00" from="-496" to="-1057"/>
  <trip id="randUni2915:1" type="random" depart="1444.00" departPos="116.36" arrivalPos="61.94" arrivalSpeed="0.00" from="601" to="-579"/>
  <trip id="randUni1645:1" type="random" depart="1510.00" departPos="15.95" arrivalPos="174.26" arrivalSpeed="0.00" from="-330" to="1415"/>
  <trip id="randUni2880:1" type="random" depart="1522.00" departPos="15.93" arrivalPos="103.57" arrivalSpeed="0.00" from="-535" to="1359"/>
  <trip id="randUni962:1" type="random" depart="1526.00" departPos="22.92" arrivalPos="81.49" arrivalSpeed="0.00" from="732" to="-696"/>
  <trip id="randUni3568:1" type="random" depart="1551.00" departPos="184.24" arrivalPos="90.63" arrivalSpeed="0.00" from="-1882" to="-344"/>
  <trip id="randUni1145:1" type="random" depart="1552.00" departPos="127.26" arrivalPos="68.82" arrivalSpeed="0.00" from="-1363" to="-642"/>
  <trip id="randUni2054:1" type="random" depart="1667.00" departPos="14.65" arrivalPos="7.96" arrivalSpeed="0.00" from="-1517" to="1357"/>
  <trip id="randUni3452:1" type="random" depart="1687.00" departPos="84.32" arrivalPos="115.58" arrivalSpeed="0.00" from="570" to="-1363"/>
  <trip id="randUni281:1" type="random" depart="1695.00" departPos="196.20" arrivalPos="59.84" arrivalSpeed="0.00" from="589" to="597"/>
  <trip id="randUni476:1" type="random" depart="1715.00" departPos="54.46" arrivalPos="51.00" arrivalSpeed="0.00" from="-608" to="496"/>
  <trip id="randUni1808:1" type="random" depart="1769.00" departPos="66.03" arrivalPos="30.07" arrivalSpeed="0.00" from="-684" to="1464"/>
  <trip id="randUni3646:1" type="random" depart="1788.00" departPos="59.64" arrivalPos="44.18" arrivalSpeed="0.00" from="1891" to="-1033"/>
  <trip id="randUni1614:1" type="random" depart="1850.00" departPos="76.79" arrivalPos="170.06" arrivalSpeed="0.00" from="-517" to="1532"/>
  <trip id="randUni717:1" type="random" depart="1852.00" departPos="54.99" arrivalPos="1.91" arrivalSpeed="0.00" from="496" to="-38"/>
  <trip id="randUni456:1" type="random" depart="1912.00" departPos="13.86" arrivalPos="148.90" arrivalSpeed="0.00" from="349" to="-9"/>
  <trip id="randUni2274:1" type="random" depart="1926.00" departPos="24.12" arrivalPos="42.68" arrivalSpeed="0.00" from="1775" to="496"/>
  <trip id="randUni1251:1" type="random" depart="1936.00" departPos="7.15" arrivalPos="27.20" arrivalSpeed="0.00" from="867" to="1415"/>
  <trip id="randUni3542:1" type="random" depart="2025.00" departPos="28.80" arrivalPos="62.29" arrivalSpeed="0.00" from="728" to="1363"/>
  <trip id="randUni2705:1" type="random" depart="2027.00" departPos="207.28" arrivalPos="44.93" arrivalSpeed="0.00" from="642" to="-117"/>
  <trip id="randUni2114:1" type="random" depart="2034.00" departPos="49.01" arrivalPos="45.28" arrivalSpeed="0.00" from="496" to="-210"/>
  <trip id="randUni2485:1" type="random" depart="2034.00" departPos="42.13" arrivalPos="4.49" arrivalSpeed="0.00" from="1523" to="313"/>
  <trip id="randUni2209:1" type="random" depart="2059.00" departPos="176.29" arrivalPos="127.13" arrivalSpeed="0.00" from="121" to="1769"/>
  <trip id="randUni3482:1" type="random" depart="2104.00" departPos="188.32" arrivalPos="41.24" arrivalSpeed="0.00" from="-1882" to="-1033"/>
  <trip id="randUni3179:1" type="random" depart="2221.00" departPos="107.93" arrivalPos="63.10" arrivalSpeed="0.00" from="1425" to="-344"/>
  <trip id="randUni151:1" type="random" depart="2232.00" departPos="9.88" arrivalPos="57.88" arrivalSpeed="0.00" from="-1404" to="128"/>
  <trip id="randUni1511:1" type="random" depart="2358.00" departPos="194.37" arrivalPos="80.21" arrivalSpeed="0.00" from="-3" to="332"/>
  <trip id="randUni2765:1" type="random" depart="2412.00" departPos="72.55" arrivalPos="136.38" arrivalSpeed="0.00" from="684" to="-1427"/>
  <trip id="randUni173:1" type="random" depart="2419.00" departPos="21.01" arrivalPos="46.03" arrivalSpeed="0.00" from="356" to="1771"/>
  <trip id="randUni3258:1" type="random" depart="2421.00" departPos="4.02" arrivalPos="115.71" arrivalSpeed="0.00" from="-1359" to="-3"/>
  <trip id="randUni1750:1" type="random" depart="2484.00" departPos="21.77" arrivalPos="66.89" arrivalSpeed="0.00" from="-11" to="1011"/>
  <trip id="randUni2613:1" type="random" depart="2501.00" departPos="7.23" arrivalPos="26.77" arrivalSpeed="0.00" from="325" to="-1345"/>
  <trip id="randUni2308:1" type="random" depart="2512.00" departPos="62.00" arrivalPos="103.85" arrivalSpeed="0.00" from="696" to="-577"/>
  <trip id="randUni1325:1" type="random" depart="2574.00" departPos="125.26" arrivalPos="132.26" arrivalSpeed="0.00" from="1027" to="840"/>
  <trip id="randUni1712:1" type="random" depart="2638.00" departPos="59.87" arrivalPos="124.84" arrivalSpeed="0.00" from="1532" to="-686"/>
  <trip id="randUni3321:1" type="random" depart="2739.00" departPos="7.11" arrivalPos="87.76" arrivalSpeed="0.00" from="-116" to="876"/>
  <trip id="randUni285:1" type="random" depart="2796.00" departPos="209.38" arrivalPos="132.71" arrivalSpeed="0.00" from="-1323" to="-1342"/>
  <trip id="randUni3147:1" type="random" depart="2833.00" departPos="41.06" arrivalPos="3.43" arrivalSpeed="0.00" from="-1388" to="-365"/>
  <trip id="randUni2929:1" type="random" depart="2851.00" departPos="76.56" arrivalPos="127.25" arrivalSpeed="0.00" from="-867" to="-126"/>
  <trip id="randUni3823:1" type="random" depart="3023.00" departPos="117.41" arrivalPos="9.76" arrivalSpeed="0.00" from="882" to="1388"/>
  <trip id="randUni88:1" type="random" depart="3083.00" departPos="90.87" arrivalPos="60.94" arrivalSpeed="0.00" from="17" to="-123"/>
  <trip id="randUni2287:1" type="random" depart="3087.00" departPos="42.54" arrivalPos="138.32" arrivalSpeed="0.00" from="1201" to="-589"/>
  <trip id="randUni1105:1" type="random" depart="3091.00" departPos="58.06" arrivalPos="39.87" arrivalSpeed="0.00" from="-579" to="-121"/>
  <trip id="randUni2046:1" type="random" depart="3104.00" departPos="74.97" arrivalPos="3.68" arrivalSpeed="0.00" from="25" to="-728"/>
  <trip id="randUni395:1" type="random" depart="3123.00" departPos="59.65" arrivalPos="145.98" arrivalSpeed="0.00" from="734" to="-126"/>
  <trip id="randUni2089:1" type="random" depart="3173.00" departPos="95.47" arrivalPos="27.75" arrivalSpeed="0.00" from="698" to="1396"/>
  <trip id="randUni2077:1" type="random" depart="3221.00" departPos="62.80" arrivalPos="57.79" arrivalSpeed="0.00" from="614" to="870"/>
  <trip id="randUni3605:1" type="random" depart="3244.00" departPos="129.34" arrivalPos="18.36" arrivalSpeed="0.00" from="-734" to="867"/>
  <trip id="randUni2070:1" type="random" depart="3301.00" departPos="188.01" arrivalPos="69.51" arrivalSpeed="0.00" from="734" to="-625"/>
  <trip id="randUni1179:1" type="random" depart="3316.00" departPos="185.26" arrivalPos="41.01" arrivalSpeed="0.00" from="1797" to="1773"/>
  <trip id="randUni917:1" type="random" depart="3389.00" departPos="70.24" arrivalPos="20.16" arrivalSpeed="0.00" from="-642" to="-684"/>
  <trip id="randUni1336:1" type="random" depart="3488.00" departPos="69.37" arrivalPos="175.79" arrivalSpeed="0.00" from="-870" to="1783"/>
  <trip id="randUni1036:1" type="random" depart="3514.00" departPos="23.74" arrivalPos="124.74" arrivalSpeed="0.00" from="-1093" to="639"/>
  <trip id="randUni3921:1" type="random" depart="3542.00" departPos="92.85" arrivalPos="21.98" arrivalSpeed="0.00" from="356" to="-1775"/>
  <trip id="randUni158:1" type="random" depart="3548.00" departPos="124.69" arrivalPos="64.71" arrivalSpeed="0.00" from="-867" to="-579"/>
  <trip id="randUni510:1" type="random" depart="3615.00" departPos="21.80" arrivalPos="59.18" arrivalSpeed="0.00" from="7" to="1373"/>
  <trip id="randUni1514:1" type="random" depart="3633.00" departPos="135.46" arrivalPos="127.61" arrivalSpeed="0.00" from="349" to="882"/>
  <trip id="randUni3662:1" type="random" depart="3652.00" departPos="37.56" arrivalPos="3.75" arrivalSpeed="0.00" from="-840" to="-13"/>
  <trip id="randUni2371:1" type="random" depart="3695.00" departPos="26.94" arrivalPos="87.12" arrivalSpeed="0.00" from="-325" to="523"/>
  <trip id="randUni403:1" type="random" depart="3794.00" departPos="74.80" arrivalPos="141.36" arrivalSpeed="0.00" from="732" to="-1526"/>
  <trip id="randUni3011:1" type="random" depart="3918.00" departPos="98.13" arrivalPos="116.69" arrivalSpeed="0.00" from="-1201" to="589"/>
  <trip id="randUni3833:1" type="random" depart="3941.00" departPos="26.13" arrivalPos="23.55" arrivalSpeed="0.00" from="-504" to="1425"/>
  <trip id="randUni479:1" type="random" depart="3984.00" departPos="36.87" arrivalPos="74.89" arrivalSpeed="0.00" from="-592" to="1774"/>
  <trip id="randUni776:1" type="random" depart="4040.00" departPos="163.54" arrivalPos="80.17" arrivalSpeed="0.00" from="1771" to="623"/>
  <trip id="randUni603:1" type="random" depart="4101.00" departPos="66.93" arrivalPos="12.96" arrivalSpeed="0.00" from="1363" to="585"/>
  <trip id="randUni2650:1" type="random" depart="4134.00" departPos="54.77" arrivalPos="41.25" arrivalSpeed="0.00" from="381" to="-210"/>
  <trip id="randUni964:1" type="random" depart="4143.00" departPos="45.70" arrivalPos="68.53" arrivalSpeed="0.00" from="1767" to="504"/>
  <trip id="randUni355:1" type="random" depart="4209.00" departPos="121.98" arrivalPos="102.77" arrivalSpeed="0.00" from="-349" to="3"/>
  <trip id="randUni926:1" type="random" depart="4237.00" departPos="25.58" arrivalPos="79.65" arrivalSpeed="0.00" from="1783" to="1005"/>
  <trip id="randUni4028:1" type="random" depart="4252.00" departPos="56.65" arrivalPos="108.47" arrivalSpeed="0.00" from="1396" to="25"/>
  <trip id="randUni2179:1" type="random" depart="4290.00" departPos="78.12" arrivalPos="155.16" arrivalSpeed="0.00" from="533" to="-734"/>
  <trip id="randUni2178:1" type="random" depart="4309.00" departPos="32.48" arrivalPos="158.97" arrivalSpeed="0.00" from="533" to="1797"/>
  <trip id="randUni3288:1" type="random" depart="4331.00" departPos="25.49" arrivalPos="1.39" arrivalSpeed="0.00" from="1882" to="-9"/>
  <trip id="randUni2000:1" type="random" depart="4459.00" departPos="153.80" arrivalPos="26.16" arrivalSpeed="0.00" from="601" to="1499"/>
  <trip id="randUni3868:1" type="random" depart="4469.00" departPos="7.11" arrivalPos="84.45" arrivalSpeed="0.00" from="11" to="-1363"/>
  <trip id="randUni2365:1" type="random" depart="4528.00" departPos="1.05" arrivalPos="78.93" arrivalSpeed="0.00" from="732" to="361"/>
  <trip id="randUni3059:1" type="random" depart="4541.00" departPos="63.59" arrivalPos="38.80" arrivalSpeed="0.00" from="-381" to="1883"/>
  <trip id="randUni589:1" type="random" depart="4545.00" departPos="18.82" arrivalPos="97.68" arrivalSpeed="0.00" from="336" to="623"/>
  <trip id="randUni2215:1" type="random" depart="4600.00" departPos="52.72" arrivalPos="34.23" arrivalSpeed="0.00" from="1033" to="496"/>
  <trip id="randUni412:1" type="random" depart="4638.00" departPos="49.97" arrivalPos="63.31" arrivalSpeed="0.00" from="1891" to="1388"/>
  <trip id="randUni3008:1" type="random" depart="4649.00" departPos="11.09" arrivalPos="81.38" arrivalSpeed="0.00" from="1011" to="642"/>
  <trip id="randUni1901:1" type="random" depart="4658.00" departPos="86.34" arrivalPos="45.25" arrivalSpeed="0.00" from="-313" to="1396"/>
  <trip id="randUni3907:1" type="random" depart="4670.00" departPos="6.39" arrivalPos="77.48" arrivalSpeed="0.00" from="696" to="585"/>
  <trip id="randUni324:1" type="random" depart="4674.00" departPos="28.62" arrivalPos="113.23" arrivalSpeed="0.00" from="696" to="-1201"/>
  <trip id="randUni2925:1" type="random" depart="4703.00" departPos="126.11" arrivalPos="45.08" arrivalSpeed="0.00" from="-319" to="-650"/>
  <trip id="randUni414:1" type="random" depart="4749.00" departPos="56.17" arrivalPos="146.03" arrivalSpeed="0.00" from="383" to="623"/>
  <trip id="randUni3737:1" type="random" depart="4763.00" departPos="81.28" arrivalPos="142.19" arrivalSpeed="0.00" from="326" to="1891"/>
  <trip id="randUni4060:1" type="random" depart="4775.00" departPos="30.92" arrivalPos="132.84" arrivalSpeed="0.00" from="9" to="-333"/>
  <trip id="randUni169:1" type="random" depart="4803.00" departPos="81.18" arrivalPos="30.98" arrivalSpeed="0.00" from="-348" to="383"/>
  <trip id="randUni969:1" type="random" depart="4803.00" departPos="14.28" arrivalPos="97.23" arrivalSpeed="0.00" from="117" to="126"/>
  <trip id="randUni2201:1" type="random" depart="4811.00" departPos="63.93" arrivalPos="145.93" arrivalSpeed="0.00" from="119" to="-330"/>
  <trip id="randUni2078:1" type="random" depart="4863.00" departPos="89.03" arrivalPos="159.87" arrivalSpeed="0.00" from="1199" to="3"/>
  <trip id="randUni4001:1" type="random" depart="4879.00" departPos="106.10" arrivalPos="27.88" arrivalSpeed="0.00" from="-517" to="535"/>
  <trip id="randUni3811:1" type="random" depart="4932.00" departPos="110.16" arrivalPos="60.68" arrivalSpeed="0.00" from="-1345" to="-325"/>
  <trip id="randUni3745:1" type="random" depart="5011.00" departPos="14.16" arrivalPos="71.39" arrivalSpeed="0.00" from="1199" to="-349"/>
  <trip id="randUni1442:1" type="random" depart="5019.00" departPos="28.99" arrivalPos="83.92" arrivalSpeed="0.00" from="-121" to="-621"/>
  <trip id="randUni171:1" type="random" depart="5074.00" departPos="50.95" arrivalPos="117.30" arrivalSpeed="0.00" from="9" to="1773"/>
  <trip id="randUni1181:1" type="random" depart="5075.00" departPos="151.47" arrivalPos="27.93" arrivalSpeed="0.00" from="-1447" to="-116"/>
  <trip id="randUni828:1" type="random" depart="5155.00" departPos="0.96" arrivalPos="30.10" arrivalSpeed="0.00" from="-128" to="326"/>
  <trip id="randUni3756:1" type="random" depart="5307.00" departPos="58.35" arrivalPos="163.62" arrivalSpeed="0.00" from="1005" to="650"/>
  <trip id="randUni2091:1" type="random" depart="5348.00" departPos="36.15" arrivalPos="62.09" arrivalSpeed="0.00" from="-1342" to="882"/>
  <trip id="randUni1529:1" type="random" depart="5356.00" departPos="160.89" arrivalPos="41.99" arrivalSpeed="0.00" from="-1415" to="734"/>
  <trip id="randUni1769:1" type="random" depart="5450.00" departPos="92.08" arrivalPos="167.82" arrivalSpeed="0.00" from="1391" to="7"/>
  <trip id="randUni3331:1" type="random" depart="5496.00" departPos="27.74" arrivalPos="106.78" arrivalSpeed="0.00" from="-585" to="-38"/>
  <trip id="randUni2159:1" type="random" depart="5528.00" departPos="52.92" arrivalPos="21.20" arrivalSpeed="0.00" from="-696" to="-577"/>
  <trip id="randUni1947:1" type="random" depart="5541.00" departPos="84.55" arrivalPos="173.40" arrivalSpeed="0.00" from="577" to="-7"/>
  <trip id="randUni2364:1" type="random" depart="5541.00" departPos="80.29" arrivalPos="16.80" arrivalSpeed="0.00" from="-1425" to="-119"/>
  <trip id="randUni2411:1" type="random" depart="5542.00" departPos="1.47" arrivalPos="97.70" arrivalSpeed="0.00" from="-674" to="-25"/>
  <trip id="randUni11:1" type="random" depart="5555.00" departPos="67.19" arrivalPos="59.30" arrivalSpeed="0.00" from="332" to="-1357"/>
  <trip id="randUni153:1" type="random" depart="5597.00" departPos="143.87" arrivalPos="87.70" arrivalSpeed="0.00" from="-674" to="344"/>
  <trip id="randUni2951:1" type="random" depart="5601.00" departPos="71.78" arrivalPos="134.28" arrivalSpeed="0.00" from="-25" to="674"/>
  <trip id="randUni3042:1" type="random" depart="5605.00" departPos="80.38" arrivalPos="70.20" arrivalSpeed="0.00" from="-313" to="1524"/>
  <trip id="randUni2992:1" type="random" depart="5747.00" departPos="59.39" arrivalPos="36.38" arrivalSpeed="0.00" from="-326" to="-361"/>
  <trip id="randUni4014:1" type="random" depart="5768.00" departPos="44.94" arrivalPos="105.00" arrivalSpeed="0.00" from="585" to="19"/>
  <trip id="randUni631:1" type="random" depart="5814.00" departPos="48.76" arrivalPos="10.17" arrivalSpeed="0.00" from="-618" to="1033"/>
  <trip id="randUni911:1" type="random" depart="5830.00" departPos="122.48" arrivalPos="137.30" arrivalSpeed="0.00" from="125" to="-1771"/>
  <trip id="randUni3894:1" type="random" depart="5907.00" departPos="11.20" arrivalPos="71.27" arrivalSpeed="0.00" from="-128" to="-326"/>
  <trip id="randUni3246:1" type="random" depart="5985.00" departPos="144.17" arrivalPos="79.05" arrivalSpeed="0.00" from="492" to="-125"/>
  <trip id="randUni449:1" type="random" depart="6118.00" departPos="144.97" arrivalPos="146.36" arrivalSpeed="0.00" from="1798" to="7"/>