<!-- generated on 2023-10-28 10:03:38 by Eclipse SUMO activitygen Version 1.18.0
<configuration xmlns:xsi="http://www.w3.org/2001/XMLSchema-instance" xsi:noNamespaceSchemaLocation="http://sumo.dlr.de/xsd/activitygenConfiguration.xsd">

    <input>
        <net-file value="../sumo_config/SimpleRandom.net.xml"/>
        <stat-file value="../sumo_config/act.stat.xml"/>
    </input>

    <output>
        <output-file value="../sumo_config/test.xml"/>
    </output>

</configuration>
-->
<routes xmlns:xsi="http://www.w3.org/2001/XMLSchema-instance" xsi:noNamespaceSchemaLocation="http://sumo.dlr.de/xsd/routes_file.xsd">
  <route id="107_r" color="0.9686274509803922,0.7137254901960784,0.8235294117647058" edges="-686 -597 -505 -338 -123 -19 -9 11 698 1027 1201">
    <stop busStop="58" duration="30"/>
    <stop busStop="50" duration="30"/>
    <stop busStop="43" duration="30"/>
    <stop busStop="9" duration="30"/>
    <stop busStop="34" duration="30"/>
    <stop busStop="70" duration="30"/>
    <stop busStop="74" duration="30"/>
    <stop busStop="135" duration="30"/>
    <stop busStop="71" duration="30"/>
  </route>
  <route id="107" color="0.8901960784313725,0.4666666666666667,0.7607843137254902" edges="-1201 -1027 -698 -11 9 19 123 338 505 597 686">
    <stop busStop="1" duration="30"/>
    <stop busStop="65" duration="30"/>
    <stop busStop="4" duration="30"/>
    <stop busStop="140" duration="30"/>
    <stop busStop="104" duration="30"/>
    <stop busStop="79" duration="30"/>
    <stop busStop="113" duration="30"/>
    <stop busStop="120" duration="30"/>
    <stop busStop="128" duration="30"/>
  </route>
  <route id="106_r" color="0.7686274509803922,0.611764705882353,0.5803921568627451" edges="-601 -535 -365 -344 -125 121 326 -313 319 639 876 -1359 1363 1429 1523 1882">
    <stop busStop="54" duration="30"/>
    <stop busStop="46" duration="30"/>
    <stop busStop="44" duration="30"/>
    <stop busStop="10" duration="30"/>
    <stop busStop="78" duration="30"/>
    <stop busStop="110" duration="30"/>
    <stop busStop="37" duration="30"/>
    <stop busStop="108" duration="30"/>
    <stop busStop="132" duration="30"/>
    <stop busStop="139" duration="30"/>
    <stop busStop="14" duration="30"/>
    <stop busStop="85" duration="30"/>
    <stop busStop="90" duration="30"/>
    <stop busStop="95" duration="30"/>
  </route>
  <route id="106" color="0.5490196078431373,0.33725490196078434,0.29411764705882354" edges="-1882 -1523 -1429 -1363 1359 -876 -639 -319 313 -326 -121 125 344 365 535 601">
    <stop busStop="25" duration="30"/>
    <stop busStop="20" duration="30"/>
    <stop busStop="15" duration="30"/>
    <stop busStop="84" duration="30"/>
    <stop busStop="69" duration="30"/>
    <stop busStop="62" duration="30"/>
    <stop busStop="38" duration="30"/>
    <stop busStop="107" duration="30"/>
    <stop busStop="40" duration="30"/>
    <stop busStop="8" duration="30"/>
    <stop busStop="80" duration="30"/>
    <stop busStop="114" duration="30"/>
    <stop busStop="116" duration="30"/>
    <stop busStop="124" duration="30"/>
  </route>
  <route id="105_r" color="0.7725490196078432,0.6901960784313725,0.8352941176470589" edges="-1464 -1388 -533 -365 -344 -125 121 326 -313 319 621">
    <stop busStop="16" duration="30"/>
    <stop busStop="53" duration="30"/>
    <stop busStop="46" duration="30"/>
    <stop busStop="44" duration="30"/>
    <stop busStop="10" duration="30"/>
    <stop busStop="78" duration="30"/>
    <stop busStop="110" duration="30"/>
    <stop busStop="37" duration="30"/>
    <stop busStop="108" duration="30"/>
  </route>
  <route id="105" color="0.5803921568627451,0.403921568627451,0.7411764705882353" edges="-621 -319 313 -326 -121 125 344 365 533 1388 1464">
    <stop busStop="38" duration="30"/>
    <stop busStop="107" duration="30"/>
    <stop busStop="40" duration="30"/>
    <stop busStop="8" duration="30"/>
    <stop busStop="80" duration="30"/>
    <stop busStop="114" duration="30"/>
    <stop busStop="116" duration="30"/>
    <stop busStop="123" duration="30"/>
    <stop busStop="86" duration="30"/>
  </route>
  <route id="104_r" color="1.0,0.596078431372549,0.5882352941176471" edges="-1404 -1345 -1342 -1093 -1029 -728 -11 3 15 117 319 639 876 -1535 -1533 -1524 1526 1891">
    <stop busStop="13" duration="30"/>
    <stop busStop="12" duration="30"/>
    <stop busStop="3" duration="30"/>
    <stop busStop="2" duration="30"/>
    <stop busStop="66" duration="30"/>
    <stop busStop="4" duration="30"/>
    <stop busStop="106" duration="30"/>
    <stop busStop="93" duration="30"/>
    <stop busStop="75" duration="30"/>
    <stop busStop="108" duration="30"/>
    <stop busStop="132" duration="30"/>
    <stop busStop="139" duration="30"/>
    <stop busStop="29" duration="30"/>
    <stop busStop="28" duration="30"/>
    <stop busStop="26" duration="30"/>
    <stop busStop="97" duration="30"/>
  </route>
  <route id="104" color="0.8392156862745098,0.15294117647058825,0.1568627450980392" edges="-1891 -1526 1524 1533 1535 -876 -639 -319 -117 -15 -3 11 728 1029 1093 1342 1345 1404">
    <stop busStop="27" duration="30"/>
    <stop busStop="96" duration="30"/>
    <stop busStop="98" duration="30"/>
    <stop busStop="99" duration="30"/>
    <stop busStop="69" duration="30"/>
    <stop busStop="62" duration="30"/>
    <stop busStop="38" duration="30"/>
    <stop busStop="5" duration="30"/>
    <stop busStop="23" duration="30"/>
    <stop busStop="36" duration="30"/>
    <stop busStop="74" duration="30"/>
    <stop busStop="136" duration="30"/>
    <stop busStop="72" duration="30"/>
    <stop busStop="73" duration="30"/>
    <stop busStop="82" duration="30"/>
    <stop busStop="83" duration="30"/>
  </route>
  <route id="103_r" color="0.596078431372549,0.8745098039215686,0.5411764705882353" edges="-1483 -1425 1415 -523 -338 -123 -19 -9 11 728 1029 1093 1342 1345 1404">
    <stop busStop="19" duration="30"/>
    <stop busStop="88" duration="30"/>
    <stop busStop="52" duration="30"/>
    <stop busStop="43" duration="30"/>
    <stop busStop="9" duration="30"/>
    <stop busStop="34" duration="30"/>
    <stop busStop="70" duration="30"/>
    <stop busStop="74" duration="30"/>
    <stop busStop="136" duration="30"/>
    <stop busStop="72" duration="30"/>
    <stop busStop="73" duration="30"/>
    <stop busStop="82" duration="30"/>
    <stop busStop="83" duration="30"/>
  </route>
  <route id="103" color="0.17254901960784313,0.6274509803921569,0.17254901960784313" edges="-1404 -1345 -1342 -1093 -1029 -728 -11 9 19 123 338 523 -1415 1425 1483">
    <stop busStop="13" duration="30"/>
    <stop busStop="12" duration="30"/>
    <stop busStop="3" duration="30"/>
    <stop busStop="2" duration="30"/>
    <stop busStop="66" duration="30"/>
    <stop busStop="4" duration="30"/>
    <stop busStop="140" duration="30"/>
    <stop busStop="104" duration="30"/>
    <stop busStop="79" duration="30"/>
    <stop busStop="113" duration="30"/>
    <stop busStop="122" duration="30"/>
    <stop busStop="18" duration="30"/>
    <stop busStop="89" duration="30"/>
  </route>
  <route id="102_r" color="1.0,0.7333333333333333,0.47058823529411764" edges="-867 -618 -579 -383 -128 -25 17 38 319 639 876 -1359 1363 1429 1517 1797">
    <stop busStop="60" duration="30"/>
    <stop busStop="55" duration="30"/>
    <stop busStop="48" duration="30"/>
    <stop busStop="11" duration="30"/>
    <stop busStop="35" duration="30"/>
    <stop busStop="100" duration="30"/>
    <stop busStop="117" duration="30"/>
    <stop busStop="108" duration="30"/>
    <stop busStop="132" duration="30"/>
    <stop busStop="139" duration="30"/>
    <stop busStop="14" duration="30"/>
    <stop busStop="85" duration="30"/>
    <stop busStop="90" duration="30"/>
    <stop busStop="94" duration="30"/>
  </route>
  <route id="102" color="1.0,0.4980392156862745,0.054901960784313725" edges="-1797 -1517 -1429 -1363 1359 -876 -639 -319 -38 -17 25 128 383 579 618 867">
    <stop busStop="24" duration="30"/>
    <stop busStop="20" duration="30"/>
    <stop busStop="15" duration="30"/>
    <stop busStop="84" duration="30"/>
    <stop busStop="69" duration="30"/>
    <stop busStop="62" duration="30"/>
    <stop busStop="38" duration="30"/>
    <stop busStop="47" duration="30"/>
    <stop busStop="30" duration="30"/>
    <stop busStop="105" duration="30"/>
    <stop busStop="81" duration="30"/>
    <stop busStop="118" duration="30"/>
    <stop busStop="125" duration="30"/>
    <stop busStop="130" duration="30"/>
  </route>
  <route id="101_r" color="0.6823529411764706,0.7803921568627451,0.9098039215686274" edges="-496 -361 -336 338 517 -588 -325 -117 119 332 592 642 840">
    <stop busStop="45" duration="30"/>
    <stop busStop="42" duration="30"/>
    <stop busStop="113" duration="30"/>
    <stop busStop="121" duration="30"/>
    <stop busStop="56" duration="30"/>
    <stop busStop="39" duration="30"/>
    <stop busStop="5" duration="30"/>
    <stop busStop="76" duration="30"/>
    <stop busStop="111" duration="30"/>
    <stop busStop="127" duration="30"/>
    <stop busStop="133" duration="30"/>
  </route>
  <route id="101" color="0.12156862745098039,0.4666666666666667,0.7058823529411765" edges="-840 -642 -592 -332 -119 117 325 588 -517 -338 336 361 496">
    <stop busStop="63" duration="30"/>
    <stop busStop="57" duration="30"/>
    <stop busStop="41" duration="30"/>
    <stop busStop="6" duration="30"/>
    <stop busStop="75" duration="30"/>
    <stop busStop="109" duration="30"/>
    <stop busStop="126" duration="30"/>
    <stop busStop="51" duration="30"/>
    <stop busStop="43" duration="30"/>
    <stop busStop="112" duration="30"/>
    <stop busStop="115" duration="30"/>
  </route>
  <vType id="default" vClass="passenger" color="red"/>
  <vType id="random" vClass="passenger" color="blue"/>
  <vType id="bus" vClass="bus"/>
  <trip id="randUni6760:1" type="random" depart="16.00" departPos="49.13" arrivalPos="76.28" arrivalSpeed="0.00" from="13" to="-1526"/>
  <trip id="randUni3294:1" type="random" depart="38.00" departPos="106.66" arrivalPos="66.37" arrivalSpeed="0.00" from="-330" to="1363"/>
  <trip id="randUni3272:1" type="random" depart="79.00" departPos="149.75" arrivalPos="122.81" arrivalSpeed="0.00" from="1388" to="1391"/>
  <trip id="randUni4457:1" type="random" depart="136.00" departPos="126.63" arrivalPos="53.72" arrivalSpeed="0.00" from="-1415" to="-1005"/>
  <trip id="randUni6383:1" type="random" depart="161.00" departPos="60.49" arrivalPos="175.10" arrivalSpeed="0.00" from="123" to="-523"/>
  <trip id="randUni7735:1" type="random" depart="234.00" departPos="89.23" arrivalPos="112.42" arrivalSpeed="0.00" from="1769" to="-333"/>
  <trip id="randUni5233:1" type="random" depart="254.00" departPos="139.35" arrivalPos="179.82" arrivalSpeed="0.00" from="-1775" to="1783"/>
  <trip id="randUni278:1" type="random" depart="412.00" departPos="153.62" arrivalPos="112.71" arrivalSpeed="0.00" from="-313" to="1533"/>
  <trip id="randUni4274:1" type="random" depart="426.00" departPos="57.12" arrivalPos="35.78" arrivalSpeed="0.00" from="356" to="1057"/>
  <trip id="randUni4909:1" type="random" depart="434.00" departPos="11.17" arrivalPos="147.40" arrivalSpeed="0.00" from="119" to="1011"/>
  <trip id="randUni3632:1" type="random" depart="443.00" departPos="191.94" arrivalPos="79.53" arrivalSpeed="0.00" from="-505" to="-365"/>
  <trip id="randUni5923:1" type="random" depart="458.00" departPos="140.42" arrivalPos="61.38" arrivalSpeed="0.00" from="313" to="-333"/>
  <trip id="randUni4518:1" type="random" depart="463.00" departPos="194.78" arrivalPos="18.77" arrivalSpeed="0.00" from="319" to="-356"/>
  <trip id="randUni3291:1" type="random" depart="515.00" departPos="95.47" arrivalPos="107.87" arrivalSpeed="0.00" from="876" to="1447"/>
  <trip id="randUni3705:1" type="random" depart="527.00" departPos="198.38" arrivalPos="80.16" arrivalSpeed="0.00" from="-121" to="-577"/>
  <trip id="randUni7166:1" type="random" depart="541.00" departPos="149.32" arrivalPos="106.20" arrivalSpeed="0.00" from="492" to="505"/>
  <trip id="randUni5864:1" type="random" depart="550.00" departPos="24.67" arrivalPos="123.51" arrivalSpeed="0.00" from="1057" to="349"/>
  <trip id="randUni103:1" type="random" depart="596.00" departPos="190.23" arrivalPos="111.55" arrivalSpeed="0.00" from="-642" to="601"/>
  <trip id="randUni2392:1" type="random" depart="638.00" departPos="95.95" arrivalPos="56.45" arrivalSpeed="0.00" from="-1524" to="-349"/>
  <trip id="randUni2447:1" type="random" depart="643.00" departPos="86.68" arrivalPos="168.55" arrivalSpeed="0.00" from="-1391" to="349"/>
  <trip id="randUni4994:1" type="random" depart="644.00" departPos="100.10" arrivalPos="128.04" arrivalSpeed="0.00" from="597" to="1011"/>
  <trip id="randUni407:1" type="random" depart="652.00" departPos="168.85" arrivalPos="122.89" arrivalSpeed="0.00" from="867" to="-1501"/>
  <trip id="randUni5252:1" type="random" depart="662.00" departPos="147.55" arrivalPos="160.17" arrivalSpeed="0.00" from="-325" to="1201"/>
  <trip id="randUni2133:1" type="random" depart="673.00" departPos="188.46" arrivalPos="80.28" arrivalSpeed="0.00" from="-880" to="585"/>
  <trip id="randUni3211:1" type="random" depart="764.00" departPos="16.99" arrivalPos="11.37" arrivalSpeed="0.00" from="1431" to="-361"/>
  <trip id="randUni4194:1" type="random" depart="776.00" departPos="208.39" arrivalPos="77.16" arrivalSpeed="0.00" from="1057" to="577"/>
  <trip id="randUni5222:1" type="random" depart="780.00" departPos="61.45" arrivalPos="169.25" arrivalSpeed="0.00" from="625" to="1771"/>
  <trip id="randUni2768:1" type="random" depart="810.00" departPos="105.61" arrivalPos="84.37" arrivalSpeed="0.00" from="-117" to="121"/>
  <trip id="randUni6527:1" type="random" depart="841.00" departPos="34.63" arrivalPos="92.86" arrivalSpeed="0.00" from="-696" to="-1093"/>
  <trip id="randUni275:1" type="random" depart="878.00" departPos="112.64" arrivalPos="83.93" arrivalSpeed="0.00" from="338" to="-686"/>
  <trip id="randUni4918:1" type="random" depart="888.00" departPos="10.64" arrivalPos="20.60" arrivalSpeed="0.00" from="-625" to="1427"/>
  <trip id="randUni2667:1" type="random" depart="929.00" departPos="36.15" arrivalPos="20.21" arrivalSpeed="0.00" from="876" to="38"/>
  <trip id="randUni1350:1" type="random" depart="936.00" departPos="203.63" arrivalPos="164.07" arrivalSpeed="0.00" from="1447" to="-1767"/>
  <trip id="randUni5227:1" type="random" depart="962.00" departPos="69.03" arrivalPos="0.69" arrivalSpeed="0.00" from="-870" to="383"/>
  <trip id="randUni5309:1" type="random" depart="1047.00" departPos="82.75" arrivalPos="110.74" arrivalSpeed="0.00" from="523" to="-325"/>
  <trip id="randUni2549:1" type="random" depart="1066.00" departPos="52.31" arrivalPos="71.13" arrivalSpeed="0.00" from="64" to="1396"/>
  <trip id="randUni4878:1" type="random" depart="1079.00" departPos="37.19" arrivalPos="50.40" arrivalSpeed="0.00" from="365" to="-882"/>
  <trip id="randUni811:1" type="random" depart="1095.00" departPos="120.71" arrivalPos="103.62" arrivalSpeed="0.00" from="535" to="684"/>
  <trip id="randUni3692:1" type="random" depart="1101.00" departPos="23.19" arrivalPos="8.49" arrivalSpeed="0.00" from="-674" to="-1532"/>
  <trip id="randUni2310:1" type="random" depart="1109.00" departPos="132.27" arrivalPos="6.75" arrivalSpeed="0.00" from="-730" to="-1797"/>
  <trip id="randUni4609:1" type="random" depart="1110.00" departPos="101.50" arrivalPos="42.16" arrivalSpeed="0.00" from="-210" to="-326"/>
  <trip id="randUni3823:1" type="random" depart="1118.00" departPos="212.91" arrivalPos="99.48" arrivalSpeed="0.00" from="-1773" to="-361"/>
  <trip id="randUni2039:1" type="random" depart="1120.00" departPos="13.50" arrivalPos="76.86" arrivalSpeed="0.00" from="326" to="-1404"/>
  <trip id="randUni7398:1" type="random" depart="1122.00" departPos="113.34" arrivalPos="39.91" arrivalSpeed="0.00" from="-492" to="-732"/>
  <trip id="randUni4383:1" type="random" depart="1134.00" departPos="47.91" arrivalPos="46.34" arrivalSpeed="0.00" from="-13" to="38"/>
  <trip id="randUni5326:1" type="random" depart="1155.00" departPos="158.46" arrivalPos="128.13" arrivalSpeed="0.00" from="-585" to="344"/>
  <trip id="randUni5434:1" type="random" depart="1278.00" departPos="98.85" arrivalPos="86.49" arrivalSpeed="0.00" from="-623" to="492"/>
  <trip id="randUni267:1" type="random" depart="1280.00" departPos="93.07" arrivalPos="49.58" arrivalSpeed="0.00" from="577" to="-732"/>
  <trip id="randUni611:1" type="random" depart="1280.00" departPos="97.23" arrivalPos="148.59" arrivalSpeed="0.00" from="336" to="674"/>
  <trip id="randUni3620:1" type="random" depart="1294.00" departPos="37.10" arrivalPos="131.13" arrivalSpeed="0.00" from="876" to="-356"/>
  <trip id="randUni2585:1" type="random" depart="1296.00" departPos="125.97" arrivalPos="68.45" arrivalSpeed="0.00" from="-1427" to="-876"/>
  <trip id="randUni1067:1" type="random" depart="1304.00" departPos="136.91" arrivalPos="147.88" arrivalSpeed="0.00" from="1797" to="569"/>
  <trip id="randUni7724:1" type="random" depart="1310.00" departPos="97.81" arrivalPos="63.76" arrivalSpeed="0.00" from="-848" to="592"/>
  <trip id="randUni946:1" type="random" depart="1339.00" departPos="90.62" arrivalPos="16.15" arrivalSpeed="0.00" from="642" to="-1429"/>
  <trip id="randUni668:1" type="random" depart="1365.00" departPos="213.04" arrivalPos="150.55" arrivalSpeed="0.00" from="642" to="625"/>
  <trip id="randUni2527:1" type="random" depart="1369.00" departPos="109.99" arrivalPos="158.94" arrivalSpeed="0.00" from="-1431" to="-1388"/>
  <trip id="randUni3958:1" type="random" depart="1380.00" departPos="35.88" arrivalPos="67.14" arrivalSpeed="0.00" from="1357" to="1783"/>
  <trip id="randUni5423:1" type="random" depart="1395.00" departPos="9.63" arrivalPos="16.23" arrivalSpeed="0.00" from="-1373" to="517"/>
  <trip id="randUni3459:1" type="random" depart="1396.00" departPos="66.52" arrivalPos="149.71" arrivalSpeed="0.00" from="-381" to="-313"/>
  <trip id="randUni460:1" type="random" depart="1404.00" departPos="125.18" arrivalPos="43.97" arrivalSpeed="0.00" from="-210" to="-9"/>
  <trip id="randUni1648:1" type="random" depart="1472.00" departPos="88.48" arrivalPos="82.95" arrivalSpeed="0.00" from="-1201" to="-698"/>
  <trip id="randUni6965:1" type="random" depart="1495.00" departPos="3.59" arrivalPos="18.18" arrivalSpeed="0.00" from="-618" to="-123"/>
  <trip id="randUni6353:1" type="random" depart="1515.00" departPos="92.64" arrivalPos="14.92" arrivalSpeed="0.00" from="1415" to="1883"/>
  <trip id="randUni130:1" type="random" depart="1547.00" departPos="87.44" arrivalPos="151.11" arrivalSpeed="0.00" from="-1769" to="319"/>
  <trip id="randUni2364:1" type="random" depart="1552.00" departPos="59.08" arrivalPos="95.63" arrivalSpeed="0.00" from="-846" to="-848"/>
  <trip id="randUni4254:1" type="random" depart="1574.00" departPos="36.38" arrivalPos="75.37" arrivalSpeed="0.00" from="-1769" to="679"/>
  <trip id="randUni5377:1" type="random" depart="1604.00" departPos="46.36" arrivalPos="87.05" arrivalSpeed="0.00" from="734" to="-579"/>
  <trip id="randUni5127:1" type="random" depart="1638.00" departPos="115.70" arrivalPos="47.57" arrivalSpeed="0.00" from="125" to="-696"/>
  <trip id="randUni5667:1" type="random" depart="1642.00" departPos="0.63" arrivalPos="197.09" arrivalSpeed="0.00" from="867" to="-1771"/>
  <trip id="randUni1559:1" type="random" depart="1648.00" departPos="199.23" arrivalPos="177.83" arrivalSpeed="0.00" from="-589" to="-1499"/>
  <trip id="randUni5006:1" type="random" depart="1648.00" departPos="141.88" arrivalPos="8.43" arrivalSpeed="0.00" from="-686" to="1797"/>
  <trip id="randUni2172:1" type="random" depart="1660.00" departPos="140.48" arrivalPos="28.95" arrivalSpeed="0.00" from="-1767" to="569"/>
  <trip id="randUni2926:1" type="random" depart="1689.00" departPos="19.72" arrivalPos="43.25" arrivalSpeed="0.00" from="15" to="3"/>
  <trip id="randUni7076:1" type="random" depart="1691.00" departPos="100.22" arrivalPos="95.08" arrivalSpeed="0.00" from="-1199" to="-1769"/>
  <trip id="randUni7913:1" type="random" depart="1756.00" departPos="46.92" arrivalPos="212.82" arrivalSpeed="0.00" from="728" to="-1767"/>
  <trip id="randUni875:1" type="random" depart="1786.00" departPos="86.16" arrivalPos="87.93" arrivalSpeed="0.00" from="-870" to="-1427"/>
  <trip id="randUni3427:1" type="random" depart="1792.00" departPos="51.07" arrivalPos="1.87" arrivalSpeed="0.00" from="-837" to="-1357"/>
  <trip id="randUni6702:1" type="random" depart="1806.00" departPos="95.09" arrivalPos="125.53" arrivalSpeed="0.00" from="338" to="840"/>
  <trip id="randUni7664:1" type="random" depart="1927.00" departPos="104.12" arrivalPos="9.73" arrivalSpeed="0.00" from="-361" to="1199"/>
  <trip id="randUni6088:1" type="random" depart="1936.00" departPos="58.90" arrivalPos="102.03" arrivalSpeed="0.00" from="-325" to="-121"/>
  <trip id="randUni5250:1" type="random" depart="1937.00" departPos="157.64" arrivalPos="126.56" arrivalSpeed="0.00" from="1771" to="356"/>
  <trip id="randUni5280:1" type="random" depart="1938.00" departPos="39.89" arrivalPos="12.60" arrivalSpeed="0.00" from="1427" to="-505"/>
  <trip id="randUni5958:1" type="random" depart="1954.00" departPos="179.97" arrivalPos="148.88" arrivalSpeed="0.00" from="-1494" to="867"/>
  <trip id="randUni1560:1" type="random" depart="1964.00" departPos="153.17" arrivalPos="123.15" arrivalSpeed="0.00" from="-379" to="504"/>
  <trip id="randUni3099:1" type="random" depart="1973.00" departPos="117.16" arrivalPos="153.33" arrivalSpeed="0.00" from="-867" to="-1773"/>
  <trip id="randUni1262:1" type="random" depart="2005.00" departPos="76.95" arrivalPos="66.74" arrivalSpeed="0.00" from="326" to="-1523"/>
  <trip id="randUni4287:1" type="random" depart="2018.00" departPos="81.86" arrivalPos="140.47" arrivalSpeed="0.00" from="1029" to="333"/>
  <trip id="randUni2703:1" type="random" depart="2021.00" departPos="128.68" arrivalPos="166.03" arrivalSpeed="0.00" from="-517" to="840"/>
  <trip id="randUni6356:1" type="random" depart="2021.00" departPos="16.08" arrivalPos="142.39" arrivalSpeed="0.00" from="1093" to="-570"/>
  <trip id="randUni7317:1" type="random" depart="2029.00" departPos="81.36" arrivalPos="130.73" arrivalSpeed="0.00" from="-1464" to="38"/>
  <trip id="randUni3446:1" type="random" depart="2113.00" departPos="94.98" arrivalPos="35.60" arrivalSpeed="0.00" from="-365" to="-25"/>
  <trip id="randUni7273:1" type="random" depart="2113.00" departPos="29.31" arrivalPos="146.05" arrivalSpeed="0.00" from="639" to="-313"/>
  <trip id="randUni2822:1" type="random" depart="2118.00" departPos="77.21" arrivalPos="54.11" arrivalSpeed="0.00" from="684" to="-119"/>
  <trip id="randUni6065:1" type="random" depart="2148.00" departPos="121.27" arrivalPos="110.70" arrivalSpeed="0.00" from="696" to="533"/>
  <trip id="randUni607:1" type="random" depart="2152.00" departPos="95.77" arrivalPos="100.74" arrivalSpeed="0.00" from="-1493" to="614"/>
  <trip id="randUni6025:1" type="random" depart="2194.00" departPos="40.11" arrivalPos="153.16" arrivalSpeed="0.00" from="-728" to="577"/>
  <trip id="randUni6842:1" type="random" depart="2202.00" departPos="69.90" arrivalPos="21.00" arrivalSpeed="0.00" from="-1533" to="588"/>
  <trip id="randUni5803:1" type="random" depart="2223.00" departPos="59.39" arrivalPos="94.67" arrivalSpeed="0.00" from="-119" to="533"/>
  <trip id="randUni748:1" type="random" depart="2233.00" departPos="45.25" arrivalPos="147.25" arrivalSpeed="0.00" from="-121" to="-1517"/>
  <trip id="randUni5650:1" type="random" depart="2273.00" departPos="82.41" arrivalPos="95.81" arrivalSpeed="0.00" from="-1427" to="-728"/>
  <trip id="randUni92:1" type="random" depart="2333.00" departPos="58.04" arrivalPos="110.59" arrivalSpeed="0.00" from="-1493" to="-618"/>
  <trip id="randUni3422:1" type="random" depart="2344.00" departPos="16.54" arrivalPos="149.50" arrivalSpeed="0.00" from="64" to="1425"/>
  <trip id="randUni3517:1" type="random" depart="2423.00" departPos="155.00" arrivalPos="37.45" arrivalSpeed="0.00" from="-1533" to="11"/>
  <trip id="randUni1866:1" type="random" depart="2424.00" departPos="18.30" arrivalPos="58.63" arrivalSpeed="0.00" from="588" to="-1391"/>
  <trip id="randUni4563:1" type="random" depart="2475.00" departPos="38.56" arrivalPos="99.54" arrivalSpeed="0.00" from="585" to="1396"/>
  <trip id="randUni2332:1" type="random" depart="2481.00" departPos="222.70" arrivalPos="36.14" arrivalSpeed="0.00" from="642" to="-686"/>
  <trip id="randUni4317:1" type="random" depart="2503.00" departPos="73.63" arrivalPos="71.03" arrivalSpeed="0.00" from="-686" to="698"/>
  <trip id="randUni494:1" type="random" depart="2516.00" departPos="152.27" arrivalPos="65.48" arrivalSpeed="0.00" from="-1769" to="-612"/>
  <trip id="randUni2756:1" type="random" depart="2530.00" departPos="13.26" arrivalPos="101.92" arrivalSpeed="0.00" from="-1357" to="-876"/>
  <trip id="randUni6827:1" type="random" depart="2543.00" departPos="68.95" arrivalPos="49.39" arrivalSpeed="0.00" from="-569" to="613"/>
  <trip id="randUni6464:1" type="random" depart="2548.00" departPos="72.87" arrivalPos="78.48" arrivalSpeed="0.00" from="1441" to="-1774"/>
  <trip id="randUni4052:1" type="random" depart="2585.00" departPos="54.51" arrivalPos="37.73" arrivalSpeed="0.00" from="11" to="-1883"/>
  <trip id="randUni1703:1" type="random" depart="2627.00" departPos="135.79" arrivalPos="181.84" arrivalSpeed="0.00" from="-1057" to="840"/>
  <trip id="randUni4337:1" type="random" depart="2646.00" departPos="125.70" arrivalPos="101.29" arrivalSpeed="0.00" from="-25" to="210"/>
  <trip id="randUni553:1" type="random" depart="2668.00" departPos="56.14" arrivalPos="78.37" arrivalSpeed="0.00" from="505" to="1199"/>
  <trip id="randUni1892:1" type="random" depart="2680.00" departPos="123.92" arrivalPos="58.70" arrivalSpeed="0.00" from="1027" to="138"/>
  <trip id="randUni28:1" type="random" depart="2694.00" departPos="106.87" arrivalPos="66.17" arrivalSpeed="0.00" from="-1523" to="-686"/>
  <trip id="randUni6647:1" type="random" depart="2775.00" departPos="161.40" arrivalPos="95.01" arrivalSpeed="0.00" from="-1427" to="1771"/>
  <trip id="randUni1353:1" type="random" depart="2778.00" departPos="70.15" arrivalPos="55.87" arrivalSpeed="0.00" from="326" to="1499"/>
  <trip id="randUni1963:1" type="random" depart="2778.00" departPos="102.35" arrivalPos="143.45" arrivalSpeed="0.00" from="-882" to="-1323"/>
  <trip id="randUni5007:1" type="random" depart="2848.00" departPos="41.52" arrivalPos="160.71" arrivalSpeed="0.00" from="-1493" to="608"/>
  <trip id="randUni6956:1" type="random" depart="2857.00" departPos="24.28" arrivalPos="192.50" arrivalSpeed="0.00" from="1005" to="505"/>
  <trip id="randUni6484:1" type="random" depart="2864.00" departPos="64.13" arrivalPos="205.41" arrivalSpeed="0.00" from="-625" to="1499"/>
  <trip id="randUni5382:1" type="random" depart="2905.00" departPos="3.11" arrivalPos="62.23" arrivalSpeed="0.00" from="344" to="1323"/>
  <trip id="randUni7225:1" type="random" depart="2908.00" departPos="86.48" arrivalPos="2.13" arrivalSpeed="0.00" from="1797" to="-570"/>
  <trip id="randUni1351:1" type="random" depart="2916.00" departPos="86.36" arrivalPos="35.87" arrivalSpeed="0.00" from="-1357" to="332"/>
  <trip id="randUni6133:1" type="random" depart="2923.00" departPos="108.74" arrivalPos="71.36" arrivalSpeed="0.00" from="-7" to="1501"/>
  <trip id="randUni1829:1" type="random" depart="2936.00" departPos="32.41" arrivalPos="91.72" arrivalSpeed="0.00" from="639" to="592"/>
  <trip id="randUni4654:1" type="random" depart="2957.00" departPos="105.98" arrivalPos="80.02" arrivalSpeed="0.00" from="1891" to="-1769"/>
  <trip id="randUni5019:1" type="random" depart="2982.00" departPos="54.74" arrivalPos="23.75" arrivalSpeed="0.00" from="621" to="1343"/>
  <trip id="randUni1959:1" type="random" depart="2992.00" departPos="37.84" arrivalPos="110.40" arrivalSpeed="0.00" from="-1798" to="-125"/>
  <trip id="randUni5055:1" type="random" depart="2998.00" departPos="48.53" arrivalPos="135.34" arrivalSpeed="0.00" from="1029" to="-1323"/>
  <trip id="randUni4493:1" type="random" depart="3010.00" departPos="34.56" arrivalPos="66.04" arrivalSpeed="0.00" from="17" to="-1797"/>
  <trip id="randUni4824:1" type="random" depart="3065.00" departPos="15.69" arrivalPos="118.04" arrivalSpeed="0.00" from="-592" to="-1201"/>
  <trip id="randUni1023:1" type="random" depart="3080.00" departPos="74.74" arrivalPos="71.91" arrivalSpeed="0.00" from="119" to="330"/>
  <trip id="randUni5973:1" type="random" depart="3083.00" departPos="204.62" arrivalPos="101.23" arrivalSpeed="0.00" from="-880" to="1523"/>
  <trip id="randUni6283:1" type="random" depart="3101.00" departPos="21.23" arrivalPos="71.37" arrivalSpeed="0.00" from="-1431" to="1773"/>
  <trip id="randUni7368:1" type="random" depart="3104.00" departPos="172.38" arrivalPos="58.47" arrivalSpeed="0.00" from="674" to="-1773"/>
  <trip id="randUni6329:1" type="random" depart="3110.00" departPos="104.11" arrivalPos="47.59" arrivalSpeed="0.00" from="-319" to="-1388"/>
  <trip id="randUni7868:1" type="random" depart="3125.00" departPos="182.92" arrivalPos="5.58" arrivalSpeed="0.00" from="1532" to="-1797"/>
  <trip id="randUni7417:1" type="random" depart="3145.00" departPos="7.74" arrivalPos="28.16" arrivalSpeed="0.00" from="-1773" to="684"/>
  <trip id="randUni2759:1" type="random" depart="3150.00" departPos="99.27" arrivalPos="55.62" arrivalSpeed="0.00" from="846" to="-1464"/>
  <trip id="randUni7642:1" type="random" depart="3158.00" departPos="51.56" arrivalPos="125.00" arrivalSpeed="0.00" from="570" to="121"/>
  <trip id="randUni2702:1" type="random" depart="3159.00" departPos="224.39" arrivalPos="79.63" arrivalSpeed="0.00" from="-1882" to="-848"/>