<!-- generated on 2023-10-20 11:16:22 by Eclipse SUMO activitygen Version 1.18.0
<configuration xmlns:xsi="http://www.w3.org/2001/XMLSchema-instance" xsi:noNamespaceSchemaLocation="http://sumo.dlr.de/xsd/activitygenConfiguration.xsd">

    <input>
        <net-file value="../sumo_config/SimpleRandom.net.xml"/>
        <stat-file value="../sumo_config/act.stat.xml"/>
    </input>

    <output>
        <output-file value="../sumo_config/test.xml"/>
    </output>

</configuration>
-->
<routes xmlns:xsi="http://www.w3.org/2001/XMLSchema-instance" xsi:noNamespaceSchemaLocation="http://sumo.dlr.de/xsd/routes_file.xsd">
  <route id="107_r" color="0.9686274509803922,0.7137254901960784,0.8235294117647058" edges="-686 -597 -505 -338 -123 -19 -9 11 698 1027 1201">
    <stop busStop="58" duration="30"/>
    <stop busStop="50" duration="30"/>
    <stop busStop="43" duration="30"/>
    <stop busStop="9" duration="30"/>
    <stop busStop="34" duration="30"/>
    <stop busStop="70" duration="30"/>
    <stop busStop="74" duration="30"/>
    <stop busStop="135" duration="30"/>
    <stop busStop="71" duration="30"/>
  </route>
  <route id="107" color="0.8901960784313725,0.4666666666666667,0.7607843137254902" edges="-1201 -1027 -698 -11 9 19 123 338 505 597 686">
    <stop busStop="1" duration="30"/>
    <stop busStop="65" duration="30"/>
    <stop busStop="4" duration="30"/>
    <stop busStop="140" duration="30"/>
    <stop busStop="104" duration="30"/>
    <stop busStop="79" duration="30"/>
    <stop busStop="113" duration="30"/>
    <stop busStop="120" duration="30"/>
    <stop busStop="128" duration="30"/>
  </route>
  <route id="106_r" color="0.7686274509803922,0.611764705882353,0.5803921568627451" edges="-601 -535 -365 -344 -125 121 326 -313 319 639 876 -1359 1363 1429 1523 1882">
    <stop busStop="53" duration="30"/>
    <stop busStop="46" duration="30"/>
    <stop busStop="44" duration="30"/>
    <stop busStop="10" duration="30"/>
    <stop busStop="78" duration="30"/>
    <stop busStop="110" duration="30"/>
    <stop busStop="37" duration="30"/>
    <stop busStop="108" duration="30"/>
    <stop busStop="132" duration="30"/>
    <stop busStop="139" duration="30"/>
    <stop busStop="14" duration="30"/>
    <stop busStop="85" duration="30"/>
    <stop busStop="90" duration="30"/>
    <stop busStop="95" duration="30"/>
  </route>
  <route id="106" color="0.5490196078431373,0.33725490196078434,0.29411764705882354" edges="-1882 -1523 -1429 -1363 1359 -876 -639 -319 313 -326 -121 125 344 365 535 601">
    <stop busStop="25" duration="30"/>
    <stop busStop="20" duration="30"/>
    <stop busStop="15" duration="30"/>
    <stop busStop="84" duration="30"/>
    <stop busStop="69" duration="30"/>
    <stop busStop="62" duration="30"/>
    <stop busStop="38" duration="30"/>
    <stop busStop="107" duration="30"/>
    <stop busStop="40" duration="30"/>
    <stop busStop="8" duration="30"/>
    <stop busStop="80" duration="30"/>
    <stop busStop="114" duration="30"/>
    <stop busStop="116" duration="30"/>
    <stop busStop="123" duration="30"/>
  </route>
  <route id="105_r" color="0.7725490196078432,0.6901960784313725,0.8352941176470589" edges="-1464 -1388 -533 -365 -344 -125 121 326 -313 319 621">
    <stop busStop="16" duration="30"/>
    <stop busStop="52" duration="30"/>
    <stop busStop="46" duration="30"/>
    <stop busStop="44" duration="30"/>
    <stop busStop="10" duration="30"/>
    <stop busStop="78" duration="30"/>
    <stop busStop="110" duration="30"/>
    <stop busStop="37" duration="30"/>
    <stop busStop="108" duration="30"/>
  </route>
  <route id="105" color="0.5803921568627451,0.403921568627451,0.7411764705882353" edges="-621 -319 313 -326 -121 125 344 365 533 1388 1464">
    <stop busStop="38" duration="30"/>
    <stop busStop="107" duration="30"/>
    <stop busStop="40" duration="30"/>
    <stop busStop="8" duration="30"/>
    <stop busStop="80" duration="30"/>
    <stop busStop="114" duration="30"/>
    <stop busStop="116" duration="30"/>
    <stop busStop="122" duration="30"/>
    <stop busStop="86" duration="30"/>
  </route>
  <route id="104_r" color="1.0,0.596078431372549,0.5882352941176471" edges="-1404 -1345 -1342 -1093 -1029 -728 -11 3 15 117 319 639 876 -1535 -1533 -1524 1526 1891">
    <stop busStop="13" duration="30"/>
    <stop busStop="12" duration="30"/>
    <stop busStop="3" duration="30"/>
    <stop busStop="2" duration="30"/>
    <stop busStop="66" duration="30"/>
    <stop busStop="4" duration="30"/>
    <stop busStop="106" duration="30"/>
    <stop busStop="93" duration="30"/>
    <stop busStop="75" duration="30"/>
    <stop busStop="108" duration="30"/>
    <stop busStop="132" duration="30"/>
    <stop busStop="139" duration="30"/>
    <stop busStop="29" duration="30"/>
    <stop busStop="28" duration="30"/>
    <stop busStop="26" duration="30"/>
    <stop busStop="97" duration="30"/>
  </route>
  <route id="104" color="0.8392156862745098,0.15294117647058825,0.1568627450980392" edges="-1891 -1526 1524 1533 1535 -876 -639 -319 -117 -15 -3 11 728 1029 1093 1342 1345 1404">
    <stop busStop="27" duration="30"/>
    <stop busStop="96" duration="30"/>
    <stop busStop="98" duration="30"/>
    <stop busStop="99" duration="30"/>
    <stop busStop="69" duration="30"/>
    <stop busStop="62" duration="30"/>
    <stop busStop="38" duration="30"/>
    <stop busStop="5" duration="30"/>
    <stop busStop="23" duration="30"/>
    <stop busStop="36" duration="30"/>
    <stop busStop="74" duration="30"/>
    <stop busStop="136" duration="30"/>
    <stop busStop="72" duration="30"/>
    <stop busStop="73" duration="30"/>
    <stop busStop="82" duration="30"/>
    <stop busStop="83" duration="30"/>
  </route>
  <route id="103_r" color="0.596078431372549,0.8745098039215686,0.5411764705882353" edges="-1483 -1425 1415 -589 -325 -117 -15 -3 11 728 1029 1093 1342 1345 1404">
    <stop busStop="19" duration="30"/>
    <stop busStop="88" duration="30"/>
    <stop busStop="56" duration="30"/>
    <stop busStop="39" duration="30"/>
    <stop busStop="5" duration="30"/>
    <stop busStop="23" duration="30"/>
    <stop busStop="36" duration="30"/>
    <stop busStop="74" duration="30"/>
    <stop busStop="136" duration="30"/>
    <stop busStop="72" duration="30"/>
    <stop busStop="73" duration="30"/>
    <stop busStop="82" duration="30"/>
    <stop busStop="83" duration="30"/>
  </route>
  <route id="103" color="0.17254901960784313,0.6274509803921569,0.17254901960784313" edges="-1404 -1345 -1342 -1093 -1029 -728 -11 3 15 117 325 589 -1415 1425 1483">
    <stop busStop="13" duration="30"/>
    <stop busStop="12" duration="30"/>
    <stop busStop="3" duration="30"/>
    <stop busStop="2" duration="30"/>
    <stop busStop="66" duration="30"/>
    <stop busStop="4" duration="30"/>
    <stop busStop="106" duration="30"/>
    <stop busStop="93" duration="30"/>
    <stop busStop="75" duration="30"/>
    <stop busStop="109" duration="30"/>
    <stop busStop="126" duration="30"/>
    <stop busStop="18" duration="30"/>
    <stop busStop="89" duration="30"/>
  </route>
  <route id="102_r" color="1.0,0.7333333333333333,0.47058823529411764" edges="-867 -618 -579 -383 -128 -25 17 38 319 639 876 -1359 1363 1429 1517 1797">
    <stop busStop="60" duration="30"/>
    <stop busStop="54" duration="30"/>
    <stop busStop="48" duration="30"/>
    <stop busStop="11" duration="30"/>
    <stop busStop="35" duration="30"/>
    <stop busStop="100" duration="30"/>
    <stop busStop="117" duration="30"/>
    <stop busStop="108" duration="30"/>
    <stop busStop="132" duration="30"/>
    <stop busStop="139" duration="30"/>
    <stop busStop="14" duration="30"/>
    <stop busStop="85" duration="30"/>
    <stop busStop="90" duration="30"/>
    <stop busStop="94" duration="30"/>
  </route>
  <route id="102" color="1.0,0.4980392156862745,0.054901960784313725" edges="-1797 -1517 -1429 -1363 1359 -876 -639 -319 -38 -17 25 128 383 579 618 867">
    <stop busStop="24" duration="30"/>
    <stop busStop="20" duration="30"/>
    <stop busStop="15" duration="30"/>
    <stop busStop="84" duration="30"/>
    <stop busStop="69" duration="30"/>
    <stop busStop="62" duration="30"/>
    <stop busStop="38" duration="30"/>
    <stop busStop="47" duration="30"/>
    <stop busStop="30" duration="30"/>
    <stop busStop="105" duration="30"/>
    <stop busStop="81" duration="30"/>
    <stop busStop="118" duration="30"/>
    <stop busStop="124" duration="30"/>
    <stop busStop="130" duration="30"/>
  </route>
  <route id="101_r" color="0.6823529411764706,0.7803921568627451,0.9098039215686274" edges="-496 -361 -336 338 517 -588 -325 -117 119 332 592 642 840">
    <stop busStop="45" duration="30"/>
    <stop busStop="42" duration="30"/>
    <stop busStop="113" duration="30"/>
    <stop busStop="121" duration="30"/>
    <stop busStop="55" duration="30"/>
    <stop busStop="39" duration="30"/>
    <stop busStop="5" duration="30"/>
    <stop busStop="76" duration="30"/>
    <stop busStop="111" duration="30"/>
    <stop busStop="127" duration="30"/>
    <stop busStop="133" duration="30"/>
  </route>
  <route id="101" color="0.12156862745098039,0.4666666666666667,0.7058823529411765" edges="-840 -642 -592 -332 -119 117 325 588 -517 -338 336 361 496">
    <stop busStop="63" duration="30"/>
    <stop busStop="57" duration="30"/>
    <stop busStop="41" duration="30"/>
    <stop busStop="6" duration="30"/>
    <stop busStop="75" duration="30"/>
    <stop busStop="109" duration="30"/>
    <stop busStop="125" duration="30"/>
    <stop busStop="51" duration="30"/>
    <stop busStop="43" duration="30"/>
    <stop busStop="112" duration="30"/>
    <stop busStop="115" duration="30"/>
  </route>
  <vType id="default" vClass="passenger" color="red"/>
  <vType id="random" vClass="passenger" color="blue"/>
  <vType id="bus" vClass="bus"/>
  <trip id="randUni1611:1" type="random" depart="38.00" departPos="122.72" arrivalPos="115.44" arrivalSpeed="0.00" from="361" to="-1343"/>
  <trip id="randUni2633:1" type="random" depart="80.00" departPos="59.05" arrivalPos="16.36" arrivalSpeed="0.00" from="-1535" to="-1388"/>
  <trip id="randUni3358:1" type="random" depart="103.00" departPos="108.69" arrivalPos="49.10" arrivalSpeed="0.00" from="585" to="570"/>
  <trip id="randUni3745:1" type="random" depart="343.00" departPos="164.35" arrivalPos="112.57" arrivalSpeed="0.00" from="-650" to="1517"/>
  <trip id="randUni1537:1" type="random" depart="358.00" departPos="102.91" arrivalPos="77.78" arrivalSpeed="0.00" from="880" to="-116"/>
  <trip id="randUni2031:1" type="random" depart="371.00" departPos="31.66" arrivalPos="136.06" arrivalSpeed="0.00" from="848" to="121"/>
  <trip id="randUni4163:1" type="random" depart="437.00" departPos="20.66" arrivalPos="49.24" arrivalSpeed="0.00" from="361" to="846"/>
  <trip id="randUni3497:1" type="random" depart="474.00" departPos="30.46" arrivalPos="25.84" arrivalSpeed="0.00" from="-1883" to="-116"/>
  <trip id="randUni2825:1" type="random" depart="564.00" departPos="73.74" arrivalPos="123.23" arrivalSpeed="0.00" from="-1357" to="-1323"/>
  <trip id="randUni3995:1" type="random" depart="575.00" departPos="1.18" arrivalPos="30.25" arrivalSpeed="0.00" from="1493" to="-1404"/>
  <trip id="randUni818:1" type="random" depart="607.00" departPos="25.32" arrivalPos="12.39" arrivalSpeed="0.00" from="1033" to="-338"/>
  <trip id="randUni1608:1" type="random" depart="615.00" departPos="200.13" arrivalPos="29.24" arrivalSpeed="0.00" from="-1775" to="592"/>
  <trip id="randUni3107:1" type="random" depart="616.00" departPos="20.31" arrivalPos="108.52" arrivalSpeed="0.00" from="1357" to="612"/>
  <trip id="randUni1411:1" type="random" depart="623.00" departPos="0.50" arrivalPos="84.73" arrivalSpeed="0.00" from="-1798" to="356"/>
  <trip id="randUni3290:1" type="random" depart="637.00" departPos="16.53" arrivalPos="1.41" arrivalSpeed="0.00" from="319" to="332"/>
  <trip id="randUni2085:1" type="random" depart="651.00" departPos="9.46" arrivalPos="69.76" arrivalSpeed="0.00" from="1005" to="1343"/>
  <trip id="randUni61:1" type="random" depart="695.00" departPos="25.21" arrivalPos="45.29" arrivalSpeed="0.00" from="-1532" to="116"/>
  <trip id="randUni2861:1" type="random" depart="769.00" departPos="91.81" arrivalPos="153.47" arrivalSpeed="0.00" from="-1425" to="-121"/>
  <trip id="randUni2787:1" type="random" depart="848.00" departPos="25.31" arrivalPos="84.75" arrivalSpeed="0.00" from="1359" to="-1199"/>
  <trip id="randUni530:1" type="random" depart="867.00" departPos="155.91" arrivalPos="69.45" arrivalSpeed="0.00" from="-1882" to="-338"/>
  <trip id="randUni1291:1" type="random" depart="871.00" departPos="95.81" arrivalPos="13.90" arrivalSpeed="0.00" from="730" to="-642"/>
  <trip id="randUni1505:1" type="random" depart="944.00" departPos="120.91" arrivalPos="67.22" arrivalSpeed="0.00" from="-138" to="-1501"/>
  <trip id="randUni1504:1" type="random" depart="979.00" departPos="24.10" arrivalPos="30.25" arrivalSpeed="0.00" from="-639" to="-319"/>
  <trip id="randUni1350:1" type="random" depart="1032.00" departPos="22.15" arrivalPos="29.89" arrivalSpeed="0.00" from="-870" to="684"/>
  <trip id="randUni1475:1" type="random" depart="1152.00" departPos="60.73" arrivalPos="54.45" arrivalSpeed="0.00" from="-123" to="-1494"/>
  <trip id="randUni4058:1" type="random" depart="1159.00" departPos="16.46" arrivalPos="2.66" arrivalSpeed="0.00" from="696" to="696"/>
  <trip id="randUni550:1" type="random" depart="1208.00" departPos="128.92" arrivalPos="31.48" arrivalSpeed="0.00" from="-882" to="-840"/>
  <trip id="randUni2149:1" type="random" depart="1208.00" departPos="92.31" arrivalPos="108.65" arrivalSpeed="0.00" from="-608" to="-121"/>
  <trip id="randUni2185:1" type="random" depart="1218.00" departPos="94.25" arrivalPos="82.35" arrivalSpeed="0.00" from="-1783" to="-325"/>
  <trip id="randUni1885:1" type="random" depart="1249.00" departPos="6.87" arrivalPos="44.17" arrivalSpeed="0.00" from="-348" to="64"/>
  <trip id="randUni2079:1" type="random" depart="1265.00" departPos="20.32" arrivalPos="128.73" arrivalSpeed="0.00" from="-1005" to="882"/>
  <trip id="randUni977:1" type="random" depart="1267.00" departPos="149.21" arrivalPos="194.73" arrivalSpeed="0.00" from="-1373" to="-1415"/>
  <trip id="randUni953:1" type="random" depart="1325.00" departPos="108.84" arrivalPos="45.54" arrivalSpeed="0.00" from="1447" to="-117"/>
  <trip id="randUni2993:1" type="random" depart="1371.00" departPos="111.14" arrivalPos="104.89" arrivalSpeed="0.00" from="15" to="-732"/>
  <trip id="randUni3338:1" type="random" depart="1412.00" departPos="136.06" arrivalPos="76.34" arrivalSpeed="0.00" from="-1773" to="1494"/>
  <trip id="randUni1053:1" type="random" depart="1455.00" departPos="4.55" arrivalPos="38.70" arrivalSpeed="0.00" from="-1775" to="597"/>
  <trip id="randUni3219:1" type="random" depart="1493.00" departPos="132.66" arrivalPos="17.75" arrivalSpeed="0.00" from="882" to="-117"/>
  <trip id="randUni172:1" type="random" depart="1494.00" departPos="32.95" arrivalPos="25.24" arrivalSpeed="0.00" from="1011" to="-332"/>
  <trip id="randUni3691:1" type="random" depart="1497.00" departPos="73.46" arrivalPos="73.56" arrivalSpeed="0.00" from="1882" to="1427"/>
  <trip id="randUni350:1" type="random" depart="1541.00" departPos="0.76" arrivalPos="93.10" arrivalSpeed="0.00" from="-64" to="-11"/>
  <trip id="randUni1375:1" type="random" depart="1629.00" departPos="87.00" arrivalPos="8.24" arrivalSpeed="0.00" from="848" to="-15"/>
  <trip id="randUni147:1" type="random" depart="1704.00" departPos="106.39" arrivalPos="8.25" arrivalSpeed="0.00" from="-126" to="1359"/>
  <trip id="randUni3716:1" type="random" depart="1786.00" departPos="2.60" arrivalPos="89.61" arrivalSpeed="0.00" from="728" to="1201"/>
  <trip id="randUni444:1" type="random" depart="1794.00" departPos="172.23" arrivalPos="21.28" arrivalSpeed="0.00" from="-601" to="-1535"/>
  <trip id="randUni3917:1" type="random" depart="1816.00" departPos="90.79" arrivalPos="2.72" arrivalSpeed="0.00" from="-1093" to="-523"/>
  <trip id="randUni2735:1" type="random" depart="1832.00" departPos="109.00" arrivalPos="22.80" arrivalSpeed="0.00" from="1323" to="-325"/>
  <trip id="randUni1084:1" type="random" depart="1903.00" departPos="178.73" arrivalPos="94.25" arrivalSpeed="0.00" from="-734" to="-1774"/>
  <trip id="randUni1588:1" type="random" depart="1946.00" departPos="34.90" arrivalPos="40.19" arrivalSpeed="0.00" from="-1363" to="-1429"/>
  <trip id="randUni3192:1" type="random" depart="1963.00" departPos="29.24" arrivalPos="22.16" arrivalSpeed="0.00" from="-1494" to="383"/>
  <trip id="randUni2404:1" type="random" depart="1970.00" departPos="21.56" arrivalPos="61.73" arrivalSpeed="0.00" from="-336" to="1093"/>
  <trip id="randUni3261:1" type="random" depart="1978.00" departPos="94.89" arrivalPos="99.56" arrivalSpeed="0.00" from="1493" to="-123"/>
  <trip id="randUni3846:1" type="random" depart="1991.00" departPos="146.28" arrivalPos="87.79" arrivalSpeed="0.00" from="125" to="1201"/>
  <trip id="randUni191:1" type="random" depart="2003.00" departPos="0.13" arrivalPos="139.00" arrivalSpeed="0.00" from="-614" to="-349"/>
  <trip id="randUni1955:1" type="random" depart="2003.00" departPos="32.14" arrivalPos="76.78" arrivalSpeed="0.00" from="-1524" to="-1783"/>
  <trip id="randUni2349:1" type="random" depart="2106.00" departPos="76.14" arrivalPos="37.87" arrivalSpeed="0.00" from="698" to="123"/>
  <trip id="randUni1866:1" type="random" depart="2132.00" departPos="127.90" arrivalPos="123.61" arrivalSpeed="0.00" from="1447" to="1342"/>
  <trip id="randUni3758:1" type="random" depart="2190.00" departPos="56.28" arrivalPos="138.48" arrivalSpeed="0.00" from="1357" to="523"/>
  <trip id="randUni1649:1" type="random" depart="2191.00" departPos="75.42" arrivalPos="41.01" arrivalSpeed="0.00" from="1483" to="1883"/>
  <trip id="randUni3444:1" type="random" depart="2249.00" departPos="74.38" arrivalPos="72.22" arrivalSpeed="0.00" from="1774" to="1464"/>
  <trip id="randUni465:1" type="random" depart="2252.00" departPos="50.25" arrivalPos="24.13" arrivalSpeed="0.00" from="-1199" to="1363"/>
  <trip id="randUni3207:1" type="random" depart="2271.00" departPos="49.91" arrivalPos="11.89" arrivalSpeed="0.00" from="585" to="1199"/>
  <trip id="randUni262:1" type="random" depart="2273.00" departPos="30.29" arrivalPos="64.76" arrivalSpeed="0.00" from="119" to="612"/>
  <trip id="randUni2883:1" type="random" depart="2424.00" departPos="124.74" arrivalPos="162.58" arrivalSpeed="0.00" from="-1373" to="-1767"/>
  <trip id="randUni1665:1" type="random" depart="2554.00" departPos="47.46" arrivalPos="50.72" arrivalSpeed="0.00" from="1391" to="-125"/>
  <trip id="randUni1172:1" type="random" depart="2734.00" departPos="5.51" arrivalPos="33.41" arrivalSpeed="0.00" from="-523" to="-1524"/>
  <trip id="randUni21:1" type="random" depart="2737.00" departPos="118.01" arrivalPos="58.50" arrivalSpeed="0.00" from="1029" to="13"/>
  <trip id="randUni4061:1" type="random" depart="2802.00" departPos="106.10" arrivalPos="83.60" arrivalSpeed="0.00" from="64" to="-589"/>
  <trip id="randUni712:1" type="random" depart="2807.00" departPos="33.11" arrivalPos="118.68" arrivalSpeed="0.00" from="326" to="601"/>
  <trip id="randUni1378:1" type="random" depart="2843.00" departPos="158.74" arrivalPos="23.17" arrivalSpeed="0.00" from="-1415" to="-639"/>
  <trip id="randUni1520:1" type="random" depart="2869.00" departPos="68.98" arrivalPos="116.67" arrivalSpeed="0.00" from="1033" to="-1773"/>
  <trip id="randUni1221:1" type="random" depart="2873.00" departPos="0.46" arrivalPos="199.80" arrivalSpeed="0.00" from="-1011" to="-1027"/>
  <trip id="randUni1959:1" type="random" depart="2941.00" departPos="46.76" arrivalPos="28.94" arrivalSpeed="0.00" from="-504" to="-1767"/>
  <trip id="randUni175:1" type="random" depart="2975.00" departPos="73.27" arrivalPos="37.21" arrivalSpeed="0.00" from="-7" to="379"/>
  <trip id="randUni3896:1" type="random" depart="3006.00" departPos="85.16" arrivalPos="68.58" arrivalSpeed="0.00" from="732" to="569"/>
  <trip id="randUni4120:1" type="random" depart="3052.00" departPos="110.93" arrivalPos="55.23" arrivalSpeed="0.00" from="-492" to="11"/>
  <trip id="randUni839:1" type="random" depart="3081.00" departPos="47.49" arrivalPos="78.31" arrivalSpeed="0.00" from="-623" to="-1404"/>
  <trip id="randUni2072:1" type="random" depart="3308.00" departPos="114.02" arrivalPos="132.67" arrivalSpeed="0.00" from="138" to="361"/>
  <trip id="randUni3288:1" type="random" depart="3319.00" departPos="49.38" arrivalPos="53.35" arrivalSpeed="0.00" from="-684" to="-492"/>
  <trip id="randUni737:1" type="random" depart="3356.00" departPos="22.91" arrivalPos="110.08" arrivalSpeed="0.00" from="1483" to="1447"/>
  <trip id="randUni44:1" type="random" depart="3384.00" departPos="203.59" arrivalPos="45.39" arrivalSpeed="0.00" from="-1415" to="-1767"/>
  <trip id="randUni3153:1" type="random" depart="3399.00" departPos="84.36" arrivalPos="6.73" arrivalSpeed="0.00" from="-356" to="1447"/>
  <trip id="randUni4129:1" type="random" depart="3431.00" departPos="136.53" arrivalPos="31.10" arrivalSpeed="0.00" from="1388" to="-730"/>
  <trip id="randUni3931:1" type="random" depart="3434.00" departPos="78.01" arrivalPos="86.70" arrivalSpeed="0.00" from="333" to="623"/>
  <trip id="randUni1454:1" type="random" depart="3481.00" departPos="30.30" arrivalPos="144.81" arrivalSpeed="0.00" from="-38" to="7"/>
  <trip id="randUni3772:1" type="random" depart="3503.00" departPos="121.91" arrivalPos="129.03" arrivalSpeed="0.00" from="1415" to="504"/>
  <trip id="randUni3291:1" type="random" depart="3557.00" departPos="24.00" arrivalPos="111.40" arrivalSpeed="0.00" from="-588" to="1533"/>
  <trip id="randUni602:1" type="random" depart="3624.00" departPos="38.73" arrivalPos="104.41" arrivalSpeed="0.00" from="1357" to="-333"/>
  <trip id="randUni10:1" type="random" depart="3665.00" departPos="58.23" arrivalPos="137.69" arrivalSpeed="0.00" from="-1415" to="608"/>
  <trip id="randUni864:1" type="random" depart="3679.00" departPos="142.38" arrivalPos="37.67" arrivalSpeed="0.00" from="-349" to="837"/>
  <trip id="randUni3913:1" type="random" depart="3725.00" departPos="3.43" arrivalPos="135.36" arrivalSpeed="0.00" from="-848" to="-330"/>
  <trip id="randUni361:1" type="random" depart="3734.00" departPos="127.17" arrivalPos="30.72" arrivalSpeed="0.00" from="589" to="592"/>
  <trip id="randUni261:1" type="random" depart="3741.00" departPos="35.20" arrivalPos="66.92" arrivalSpeed="0.00" from="-1391" to="1029"/>
  <trip id="randUni2499:1" type="random" depart="3761.00" departPos="59.48" arrivalPos="52.61" arrivalSpeed="0.00" from="-1464" to="326"/>
  <trip id="randUni3776:1" type="random" depart="3813.00" departPos="38.38" arrivalPos="76.82" arrivalSpeed="0.00" from="-138" to="-597"/>
  <trip id="randUni683:1" type="random" depart="3830.00" departPos="1.15" arrivalPos="18.91" arrivalSpeed="0.00" from="-1798" to="-846"/>
  <trip id="randUni1400:1" type="random" depart="3849.00" departPos="43.72" arrivalPos="13.66" arrivalSpeed="0.00" from="356" to="612"/>
  <trip id="randUni337:1" type="random" depart="3963.00" departPos="94.25" arrivalPos="94.84" arrivalSpeed="0.00" from="-356" to="1533"/>
  <trip id="randUni1026:1" type="random" depart="4028.00" departPos="2.23" arrivalPos="160.16" arrivalSpeed="0.00" from="-25" to="-601"/>
  <trip id="randUni1074:1" type="random" depart="4028.00" departPos="73.47" arrivalPos="64.41" arrivalSpeed="0.00" from="121" to="-1769"/>
  <trip id="randUni1991:1" type="random" depart="4060.00" departPos="113.30" arrivalPos="83.68" arrivalSpeed="0.00" from="623" to="-1201"/>
  <trip id="randUni1459:1" type="random" depart="4093.00" departPos="31.81" arrivalPos="70.74" arrivalSpeed="0.00" from="-1501" to="-1533"/>
  <trip id="randUni4029:1" type="random" depart="4144.00" departPos="74.04" arrivalPos="36.56" arrivalSpeed="0.00" from="639" to="848"/>
  <trip id="randUni3869:1" type="random" depart="4179.00" departPos="68.64" arrivalPos="57.96" arrivalSpeed="0.00" from="-116" to="1771"/>
  <trip id="randUni3226:1" type="random" depart="4190.00" departPos="170.32" arrivalPos="154.43" arrivalSpeed="0.00" from="-1783" to="-492"/>
  <trip id="randUni3156:1" type="random" depart="4192.00" departPos="7.63" arrivalPos="116.29" arrivalSpeed="0.00" from="-650" to="-1798"/>
  <trip id="randUni4026:1" type="random" depart="4231.00" departPos="3.32" arrivalPos="3.79" arrivalSpeed="0.00" from="-577" to="1425"/>
  <trip id="randUni2890:1" type="random" depart="4256.00" departPos="66.27" arrivalPos="170.31" arrivalSpeed="0.00" from="-848" to="-577"/>
  <trip id="randUni2730:1" type="random" depart="4268.00" departPos="150.65" arrivalPos="75.72" arrivalSpeed="0.00" from="-1011" to="338"/>
  <trip id="randUni1075:1" type="random" depart="4416.00" departPos="143.43" arrivalPos="175.67" arrivalSpeed="0.00" from="577" to="-1447"/>
  <trip id="randUni2451:1" type="random" depart="4428.00" departPos="77.52" arrivalPos="95.51" arrivalSpeed="0.00" from="326" to="-344"/>
  <trip id="randUni1080:1" type="random" depart="4480.00" departPos="156.58" arrivalPos="124.18" arrivalSpeed="0.00" from="1882" to="-569"/>
  <trip id="randUni1870:1" type="random" depart="4480.00" departPos="42.22" arrivalPos="72.16" arrivalSpeed="0.00" from="-623" to="-621"/>
  <trip id="randUni1716:1" type="random" depart="4534.00" departPos="96.20" arrivalPos="195.23" arrivalSpeed="0.00" from="-1323" to="-1767"/>
  <trip id="randUni456:1" type="random" depart="4560.00" departPos="86.38" arrivalPos="138.54" arrivalSpeed="0.00" from="11" to="-7"/>
  <trip id="randUni2491:1" type="random" depart="4564.00" departPos="81.30" arrivalPos="20.64" arrivalSpeed="0.00" from="570" to="119"/>
  <trip id="randUni2444:1" type="random" depart="4594.00" departPos="150.82" arrivalPos="65.80" arrivalSpeed="0.00" from="569" to="496"/>
  <trip id="randUni1604:1" type="random" depart="4595.00" departPos="26.77" arrivalPos="15.99" arrivalSpeed="0.00" from="-585" to="-1769"/>
  <trip id="randUni707:1" type="random" depart="4633.00" departPos="6.17" arrivalPos="15.81" arrivalSpeed="0.00" from="1396" to="577"/>
  <trip id="randUni1791:1" type="random" depart="4697.00" departPos="53.27" arrivalPos="102.30" arrivalSpeed="0.00" from="-1775" to="-17"/>
  <trip id="randUni2199:1" type="random" depart="4733.00" departPos="105.51" arrivalPos="2.10" arrivalSpeed="0.00" from="-1029" to="1797"/>
  <trip id="randUni4078:1" type="random" depart="4797.00" departPos="84.21" arrivalPos="62.22" arrivalSpeed="0.00" from="-1499" to="-383"/>
  <trip id="randUni3328:1" type="random" depart="4802.00" departPos="35.78" arrivalPos="115.36" arrivalSpeed="0.00" from="880" to="-379"/>
  <trip id="randUni859:1" type="random" depart="4817.00" departPos="52.06" arrivalPos="24.60" arrivalSpeed="0.00" from="-1323" to="728"/>
  <trip id="randUni2081:1" type="random" depart="4905.00" departPos="200.87" arrivalPos="36.36" arrivalSpeed="0.00" from="-1323" to="1425"/>
  <trip id="randUni2752:1" type="random" depart="4936.00" departPos="21.65" arrivalPos="82.43" arrivalSpeed="0.00" from="-592" to="-19"/>
  <trip id="randUni3901:1" type="random" depart="5002.00" departPos="96.21" arrivalPos="74.11" arrivalSpeed="0.00" from="639" to="-1517"/>
  <trip id="randUni348:1" type="random" depart="5018.00" departPos="91.98" arrivalPos="88.57" arrivalSpeed="0.00" from="1431" to="533"/>
  <trip id="randUni2625:1" type="random" depart="5054.00" departPos="69.68" arrivalPos="106.12" arrivalSpeed="0.00" from="-597" to="-684"/>
  <trip id="randUni224:1" type="random" depart="5100.00" departPos="144.32" arrivalPos="83.94" arrivalSpeed="0.00" from="492" to="1883"/>
  <trip id="randUni3801:1" type="random" depart="5116.00" departPos="90.82" arrivalPos="118.04" arrivalSpeed="0.00" from="17" to="1771"/>
  <trip id="randUni45:1" type="random" depart="5193.00" departPos="138.60" arrivalPos="4.52" arrivalSpeed="0.00" from="-686" to="1429"/>
  <trip id="randUni3305:1" type="random" depart="5206.00" departPos="164.97" arrivalPos="151.95" arrivalSpeed="0.00" from="-1532" to="1447"/>
  <trip id="randUni3352:1" type="random" depart="5236.00" departPos="146.59" arrivalPos="67.45" arrivalSpeed="0.00" from="-1201" to="1483"/>
  <trip id="randUni2701:1" type="random" depart="5250.00" departPos="112.23" arrivalPos="43.07" arrivalSpeed="0.00" from="523" to="1199"/>
  <trip id="randUni77:1" type="random" depart="5291.00" departPos="70.71" arrivalPos="84.19" arrivalSpeed="0.00" from="1769" to="-840"/>
  <trip id="randUni3160:1" type="random" depart="5297.00" departPos="76.44" arrivalPos="82.34" arrivalSpeed="0.00" from="876" to="-365"/>
  <trip id="randUni1988:1" type="random" depart="5303.00" departPos="13.21" arrivalPos="38.74" arrivalSpeed="0.00" from="123" to="356"/>
  <trip id="randUni2145:1" type="random" depart="5325.00" departPos="59.98" arrivalPos="69.07" arrivalSpeed="0.00" from="-592" to="1391"/>
  <trip id="randUni3701:1" type="random" depart="5331.00" departPos="86.58" arrivalPos="47.14" arrivalSpeed="0.00" from="-25" to="-1357"/>
  <trip id="randUni1114:1" type="random" depart="5550.00" departPos="43.86" arrivalPos="52.09" arrivalSpeed="0.00" from="1464" to="-349"/>
  <trip id="randUni93:1" type="random" depart="5562.00" departPos="21.20" arrivalPos="70.53" arrivalSpeed="0.00" from="1027" to="-517"/>
  <trip id="randUni1797:1" type="random" depart="5578.00" departPos="120.59" arrivalPos="105.02" arrivalSpeed="0.00" from="1771" to="1427"/>
  <trip id="randUni2708:1" type="random" depart="5607.00" departPos="77.24" arrivalPos="153.65" arrivalSpeed="0.00" from="577" to="517"/>
  <trip id="randUni1646:1" type="random" depart="5611.00" departPos="69.75" arrivalPos="53.79" arrivalSpeed="0.00" from="25" to="326"/>
  <trip id="randUni2343:1" type="random" depart="5617.00" departPos="1.35" arrivalPos="123.11" arrivalSpeed="0.00" from="116" to="1093"/>