<!-- generated on 2023-10-30 10:14:37 by Eclipse SUMO activitygen Version 1.18.0
<configuration xmlns:xsi="http://www.w3.org/2001/XMLSchema-instance" xsi:noNamespaceSchemaLocation="http://sumo.dlr.de/xsd/activitygenConfiguration.xsd">

    <input>
        <net-file value="../sumo_config/SimpleRandom.net.xml"/>
        <stat-file value="../sumo_config/act.stat.xml"/>
    </input>

    <output>
        <output-file value="../sumo_config/test.xml"/>
    </output>

</configuration>
-->
<routes xmlns:xsi="http://www.w3.org/2001/XMLSchema-instance" xsi:noNamespaceSchemaLocation="http://sumo.dlr.de/xsd/routes_file.xsd">
  <route id="107_r" color="0.9686274509803922,0.7137254901960784,0.8235294117647058" edges="-686 -597 -505 -338 -123 -19 -9 11 698 1027 1201">
    <stop busStop="58" duration="30"/>
    <stop busStop="50" duration="30"/>
    <stop busStop="43" duration="30"/>
    <stop busStop="9" duration="30"/>
    <stop busStop="34" duration="30"/>
    <stop busStop="70" duration="30"/>
    <stop busStop="74" duration="30"/>
    <stop busStop="135" duration="30"/>
    <stop busStop="71" duration="30"/>
  </route>
  <route id="107" color="0.8901960784313725,0.4666666666666667,0.7607843137254902" edges="-1201 -1027 -698 -11 9 19 123 338 505 597 686">
    <stop busStop="1" duration="30"/>
    <stop busStop="65" duration="30"/>
    <stop busStop="4" duration="30"/>
    <stop busStop="140" duration="30"/>
    <stop busStop="104" duration="30"/>
    <stop busStop="79" duration="30"/>
    <stop busStop="113" duration="30"/>
    <stop busStop="120" duration="30"/>
    <stop busStop="128" duration="30"/>
  </route>
  <route id="106_r" color="0.7686274509803922,0.611764705882353,0.5803921568627451" edges="-601 -535 -365 -344 -125 121 326 -313 319 639 876 -1359 1363 1429 1523 1882">
    <stop busStop="54" duration="30"/>
    <stop busStop="46" duration="30"/>
    <stop busStop="44" duration="30"/>
    <stop busStop="10" duration="30"/>
    <stop busStop="78" duration="30"/>
    <stop busStop="110" duration="30"/>
    <stop busStop="37" duration="30"/>
    <stop busStop="108" duration="30"/>
    <stop busStop="132" duration="30"/>
    <stop busStop="139" duration="30"/>
    <stop busStop="14" duration="30"/>
    <stop busStop="85" duration="30"/>
    <stop busStop="90" duration="30"/>
    <stop busStop="95" duration="30"/>
  </route>
  <route id="106" color="0.5490196078431373,0.33725490196078434,0.29411764705882354" edges="-1882 -1523 -1429 -1363 1359 -876 -639 -319 313 -326 -121 125 344 365 535 601">
    <stop busStop="25" duration="30"/>
    <stop busStop="20" duration="30"/>
    <stop busStop="15" duration="30"/>
    <stop busStop="84" duration="30"/>
    <stop busStop="69" duration="30"/>
    <stop busStop="62" duration="30"/>
    <stop busStop="38" duration="30"/>
    <stop busStop="107" duration="30"/>
    <stop busStop="40" duration="30"/>
    <stop busStop="8" duration="30"/>
    <stop busStop="80" duration="30"/>
    <stop busStop="114" duration="30"/>
    <stop busStop="116" duration="30"/>
    <stop busStop="124" duration="30"/>
  </route>
  <route id="105_r" color="0.7725490196078432,0.6901960784313725,0.8352941176470589" edges="-1464 -1388 -533 -365 -344 -125 121 326 -313 319 621">
    <stop busStop="16" duration="30"/>
    <stop busStop="53" duration="30"/>
    <stop busStop="46" duration="30"/>
    <stop busStop="44" duration="30"/>
    <stop busStop="10" duration="30"/>
    <stop busStop="78" duration="30"/>
    <stop busStop="110" duration="30"/>
    <stop busStop="37" duration="30"/>
    <stop busStop="108" duration="30"/>
  </route>
  <route id="105" color="0.5803921568627451,0.403921568627451,0.7411764705882353" edges="-621 -319 313 -326 -121 125 344 365 533 1388 1464">
    <stop busStop="38" duration="30"/>
    <stop busStop="107" duration="30"/>
    <stop busStop="40" duration="30"/>
    <stop busStop="8" duration="30"/>
    <stop busStop="80" duration="30"/>
    <stop busStop="114" duration="30"/>
    <stop busStop="116" duration="30"/>
    <stop busStop="123" duration="30"/>
    <stop busStop="86" duration="30"/>
  </route>
  <route id="104_r" color="1.0,0.596078431372549,0.5882352941176471" edges="-1404 -1345 -1342 -1093 -1029 -728 -11 3 15 117 319 639 876 -1535 -1533 -1524 1526 1891">
    <stop busStop="13" duration="30"/>
    <stop busStop="12" duration="30"/>
    <stop busStop="3" duration="30"/>
    <stop busStop="2" duration="30"/>
    <stop busStop="66" duration="30"/>
    <stop busStop="4" duration="30"/>
    <stop busStop="106" duration="30"/>
    <stop busStop="93" duration="30"/>
    <stop busStop="75" duration="30"/>
    <stop busStop="108" duration="30"/>
    <stop busStop="132" duration="30"/>
    <stop busStop="139" duration="30"/>
    <stop busStop="29" duration="30"/>
    <stop busStop="28" duration="30"/>
    <stop busStop="26" duration="30"/>
    <stop busStop="97" duration="30"/>
  </route>
  <route id="104" color="0.8392156862745098,0.15294117647058825,0.1568627450980392" edges="-1891 -1526 1524 1533 1535 -876 -639 -319 -117 -15 -3 11 728 1029 1093 1342 1345 1404">
    <stop busStop="27" duration="30"/>
    <stop busStop="96" duration="30"/>
    <stop busStop="98" duration="30"/>
    <stop busStop="99" duration="30"/>
    <stop busStop="69" duration="30"/>
    <stop busStop="62" duration="30"/>
    <stop busStop="38" duration="30"/>
    <stop busStop="5" duration="30"/>
    <stop busStop="23" duration="30"/>
    <stop busStop="36" duration="30"/>
    <stop busStop="74" duration="30"/>
    <stop busStop="136" duration="30"/>
    <stop busStop="72" duration="30"/>
    <stop busStop="73" duration="30"/>
    <stop busStop="82" duration="30"/>
    <stop busStop="83" duration="30"/>
  </route>
  <route id="103_r" color="0.596078431372549,0.8745098039215686,0.5411764705882353" edges="-1483 -1425 1415 -523 -338 -123 -19 -9 11 728 1029 1093 1342 1345 1404">
    <stop busStop="19" duration="30"/>
    <stop busStop="88" duration="30"/>
    <stop busStop="52" duration="30"/>
    <stop busStop="43" duration="30"/>
    <stop busStop="9" duration="30"/>
    <stop busStop="34" duration="30"/>
    <stop busStop="70" duration="30"/>
    <stop busStop="74" duration="30"/>
    <stop busStop="136" duration="30"/>
    <stop busStop="72" duration="30"/>
    <stop busStop="73" duration="30"/>
    <stop busStop="82" duration="30"/>
    <stop busStop="83" duration="30"/>
  </route>
  <route id="103" color="0.17254901960784313,0.6274509803921569,0.17254901960784313" edges="-1404 -1345 -1342 -1093 -1029 -728 -11 9 19 123 338 523 -1415 1425 1483">
    <stop busStop="13" duration="30"/>
    <stop busStop="12" duration="30"/>
    <stop busStop="3" duration="30"/>
    <stop busStop="2" duration="30"/>
    <stop busStop="66" duration="30"/>
    <stop busStop="4" duration="30"/>
    <stop busStop="140" duration="30"/>
    <stop busStop="104" duration="30"/>
    <stop busStop="79" duration="30"/>
    <stop busStop="113" duration="30"/>
    <stop busStop="122" duration="30"/>
    <stop busStop="18" duration="30"/>
    <stop busStop="89" duration="30"/>
  </route>
  <route id="102_r" color="1.0,0.7333333333333333,0.47058823529411764" edges="-867 -618 -579 -383 -128 -25 17 38 319 639 876 -1359 1363 1429 1517 1797">
    <stop busStop="60" duration="30"/>
    <stop busStop="55" duration="30"/>
    <stop busStop="48" duration="30"/>
    <stop busStop="11" duration="30"/>
    <stop busStop="35" duration="30"/>
    <stop busStop="100" duration="30"/>
    <stop busStop="117" duration="30"/>
    <stop busStop="108" duration="30"/>
    <stop busStop="132" duration="30"/>
    <stop busStop="139" duration="30"/>
    <stop busStop="14" duration="30"/>
    <stop busStop="85" duration="30"/>
    <stop busStop="90" duration="30"/>
    <stop busStop="94" duration="30"/>
  </route>
  <route id="102" color="1.0,0.4980392156862745,0.054901960784313725" edges="-1797 -1517 -1429 -1363 1359 -876 -639 -319 -38 -17 25 128 383 579 618 867">
    <stop busStop="24" duration="30"/>
    <stop busStop="20" duration="30"/>
    <stop busStop="15" duration="30"/>
    <stop busStop="84" duration="30"/>
    <stop busStop="69" duration="30"/>
    <stop busStop="62" duration="30"/>
    <stop busStop="38" duration="30"/>
    <stop busStop="47" duration="30"/>
    <stop busStop="30" duration="30"/>
    <stop busStop="105" duration="30"/>
    <stop busStop="81" duration="30"/>
    <stop busStop="118" duration="30"/>
    <stop busStop="125" duration="30"/>
    <stop busStop="130" duration="30"/>
  </route>
  <route id="101_r" color="0.6823529411764706,0.7803921568627451,0.9098039215686274" edges="-496 -361 -336 338 517 -588 -325 -117 119 332 592 642 840">
    <stop busStop="45" duration="30"/>
    <stop busStop="42" duration="30"/>
    <stop busStop="113" duration="30"/>
    <stop busStop="121" duration="30"/>
    <stop busStop="56" duration="30"/>
    <stop busStop="39" duration="30"/>
    <stop busStop="5" duration="30"/>
    <stop busStop="76" duration="30"/>
    <stop busStop="111" duration="30"/>
    <stop busStop="127" duration="30"/>
    <stop busStop="133" duration="30"/>
  </route>
  <route id="101" color="0.12156862745098039,0.4666666666666667,0.7058823529411765" edges="-840 -642 -592 -332 -119 117 325 588 -517 -338 336 361 496">
    <stop busStop="63" duration="30"/>
    <stop busStop="57" duration="30"/>
    <stop busStop="41" duration="30"/>
    <stop busStop="6" duration="30"/>
    <stop busStop="75" duration="30"/>
    <stop busStop="109" duration="30"/>
    <stop busStop="126" duration="30"/>
    <stop busStop="51" duration="30"/>
    <stop busStop="43" duration="30"/>
    <stop busStop="112" duration="30"/>
    <stop busStop="115" duration="30"/>
  </route>
  <vType id="default" vClass="passenger" color="red"/>
  <vType id="random" vClass="passenger" color="blue"/>
  <vType id="bus" vClass="bus"/>
  <trip id="randUni15635:1" type="random" depart="5.00" departPos="149.57" arrivalPos="15.18" arrivalSpeed="0.00" from="601" to="1774"/>
  <trip id="randUni11766:1" type="random" depart="8.00" departPos="51.24" arrivalPos="58.34" arrivalSpeed="0.00" from="-496" to="-1774"/>
  <trip id="randUni14379:1" type="random" depart="9.00" departPos="60.24" arrivalPos="145.95" arrivalSpeed="0.00" from="-1057" to="589"/>
  <trip id="randUni20034:1" type="random" depart="33.00" departPos="201.86" arrivalPos="114.69" arrivalSpeed="0.00" from="-1447" to="1415"/>
  <trip id="randUni15673:1" type="random" depart="40.00" departPos="2.07" arrivalPos="103.45" arrivalSpeed="0.00" from="1532" to="326"/>
  <trip id="randUni12829:1" type="random" depart="49.00" departPos="77.04" arrivalPos="41.91" arrivalSpeed="0.00" from="1425" to="125"/>
  <trip id="randUni15250:1" type="random" depart="49.00" departPos="5.51" arrivalPos="222.32" arrivalSpeed="0.00" from="-496" to="-880"/>
  <trip id="randUni7338:1" type="random" depart="73.00" departPos="133.37" arrivalPos="193.29" arrivalSpeed="0.00" from="535" to="-1767"/>
  <trip id="randUni6318:1" type="random" depart="82.00" departPos="79.81" arrivalPos="101.88" arrivalSpeed="0.00" from="1891" to="1427"/>
  <trip id="randUni12491:1" type="random" depart="82.00" departPos="148.06" arrivalPos="124.43" arrivalSpeed="0.00" from="608" to="674"/>
  <trip id="randUni17910:1" type="random" depart="83.00" departPos="12.76" arrivalPos="97.20" arrivalSpeed="0.00" from="332" to="38"/>
  <trip id="randUni14144:1" type="random" depart="104.00" departPos="76.16" arrivalPos="34.22" arrivalSpeed="0.00" from="-1404" to="837"/>
  <trip id="randUni17154:1" type="random" depart="124.00" departPos="171.77" arrivalPos="93.04" arrivalSpeed="0.00" from="-623" to="-1033"/>
  <trip id="randUni12646:1" type="random" depart="131.00" departPos="53.54" arrivalPos="17.60" arrivalSpeed="0.00" from="38" to="1501"/>
  <trip id="randUni15269:1" type="random" depart="132.00" departPos="75.35" arrivalPos="22.26" arrivalSpeed="0.00" from="123" to="-639"/>
  <trip id="randUni10819:1" type="random" depart="135.00" departPos="199.40" arrivalPos="208.99" arrivalSpeed="0.00" from="-1494" to="1775"/>
  <trip id="randUni11959:1" type="random" depart="141.00" departPos="56.20" arrivalPos="184.21" arrivalSpeed="0.00" from="1427" to="-642"/>
  <trip id="randUni9329:1" type="random" depart="143.00" departPos="63.90" arrivalPos="126.66" arrivalSpeed="0.00" from="597" to="-867"/>
  <trip id="randUni14994:1" type="random" depart="148.00" departPos="42.20" arrivalPos="51.98" arrivalSpeed="0.00" from="-613" to="-618"/>
  <trip id="randUni8929:1" type="random" depart="149.00" departPos="100.98" arrivalPos="21.60" arrivalSpeed="0.00" from="1524" to="-1883"/>
  <trip id="randUni18221:1" type="random" depart="157.00" departPos="75.28" arrivalPos="139.77" arrivalSpeed="0.00" from="-1342" to="-1447"/>
  <trip id="randUni2048:1" type="random" depart="158.00" departPos="195.76" arrivalPos="56.68" arrivalSpeed="0.00" from="-3" to="1415"/>
  <trip id="randUni2122:1" type="random" depart="158.00" departPos="190.70" arrivalPos="132.15" arrivalSpeed="0.00" from="-1771" to="-1501"/>
  <trip id="randUni9142:1" type="random" depart="166.00" departPos="47.80" arrivalPos="131.52" arrivalSpeed="0.00" from="-1526" to="-1493"/>
  <trip id="randUni2972:1" type="random" depart="170.00" departPos="133.60" arrivalPos="57.10" arrivalSpeed="0.00" from="-569" to="11"/>
  <trip id="randUni11833:1" type="random" depart="171.00" departPos="10.01" arrivalPos="119.47" arrivalSpeed="0.00" from="1523" to="-674"/>
  <trip id="randUni4261:1" type="random" depart="173.00" departPos="49.56" arrivalPos="16.10" arrivalSpeed="0.00" from="-730" to="1199"/>
  <trip id="randUni17091:1" type="random" depart="186.00" departPos="55.70" arrivalPos="179.17" arrivalSpeed="0.00" from="1533" to="504"/>
  <trip id="randUni18646:1" type="random" depart="195.00" departPos="51.89" arrivalPos="121.16" arrivalSpeed="0.00" from="588" to="1533"/>
  <trip id="randUni13987:1" type="random" depart="204.00" departPos="25.00" arrivalPos="134.66" arrivalSpeed="0.00" from="-1526" to="-698"/>
  <trip id="randUni4497:1" type="random" depart="206.00" departPos="116.63" arrivalPos="45.92" arrivalSpeed="0.00" from="-319" to="1535"/>
  <trip id="randUni13488:1" type="random" depart="206.00" departPos="35.13" arrivalPos="172.46" arrivalSpeed="0.00" from="-837" to="-121"/>
  <trip id="randUni20838:1" type="random" depart="223.00" departPos="131.57" arrivalPos="217.53" arrivalSpeed="0.00" from="-361" to="-1499"/>
  <trip id="randUni16287:1" type="random" depart="224.00" departPos="105.31" arrivalPos="56.20" arrivalSpeed="0.00" from="13" to="1359"/>
  <trip id="randUni20323:1" type="random" depart="225.00" departPos="97.98" arrivalPos="8.82" arrivalSpeed="0.00" from="734" to="1441"/>
  <trip id="randUni9967:1" type="random" depart="250.00" departPos="84.17" arrivalPos="15.49" arrivalSpeed="0.00" from="686" to="-1357"/>
  <trip id="randUni7475:1" type="random" depart="252.00" departPos="54.29" arrivalPos="232.88" arrivalSpeed="0.00" from="1345" to="840"/>
  <trip id="randUni10605:1" type="random" depart="263.00" departPos="26.47" arrivalPos="52.50" arrivalSpeed="0.00" from="-319" to="1011"/>
  <trip id="randUni8957:1" type="random" depart="280.00" departPos="164.51" arrivalPos="13.38" arrivalSpeed="0.00" from="1775" to="846"/>
  <trip id="randUni17619:1" type="random" depart="287.00" departPos="147.47" arrivalPos="111.59" arrivalSpeed="0.00" from="-1494" to="1391"/>
  <trip id="randUni389:1" type="random" depart="322.00" departPos="23.58" arrivalPos="44.29" arrivalSpeed="0.00" from="-734" to="-585"/>
  <trip id="randUni10896:1" type="random" depart="325.00" departPos="104.59" arrivalPos="103.35" arrivalSpeed="0.00" from="-608" to="-1033"/>
  <trip id="randUni2102:1" type="random" depart="326.00" departPos="127.89" arrivalPos="27.36" arrivalSpeed="0.00" from="-728" to="1441"/>
  <trip id="randUni18945:1" type="random" depart="328.00" departPos="76.20" arrivalPos="100.63" arrivalSpeed="0.00" from="-882" to="505"/>
  <trip id="randUni3658:1" type="random" depart="351.00" departPos="21.60" arrivalPos="44.65" arrivalSpeed="0.00" from="-1363" to="-119"/>
  <trip id="randUni11701:1" type="random" depart="359.00" departPos="185.09" arrivalPos="137.37" arrivalSpeed="0.00" from="1415" to="1798"/>
  <trip id="randUni4940:1" type="random" depart="364.00" departPos="77.17" arrivalPos="102.89" arrivalSpeed="0.00" from="1427" to="504"/>
  <trip id="randUni14169:1" type="random" depart="368.00" departPos="122.03" arrivalPos="117.28" arrivalSpeed="0.00" from="505" to="730"/>
  <trip id="randUni2854:1" type="random" depart="384.00" departPos="130.57" arrivalPos="36.80" arrivalSpeed="0.00" from="1524" to="-1535"/>
  <trip id="randUni18350:1" type="random" depart="437.00" departPos="101.73" arrivalPos="80.83" arrivalSpeed="0.00" from="-25" to="1005"/>
  <trip id="randUni2204:1" type="random" depart="441.00" departPos="13.56" arrivalPos="80.36" arrivalSpeed="0.00" from="-597" to="577"/>
  <trip id="randUni20674:1" type="random" depart="451.00" departPos="71.73" arrivalPos="104.93" arrivalSpeed="0.00" from="517" to="-325"/>
  <trip id="randUni3941:1" type="random" depart="469.00" departPos="90.75" arrivalPos="116.09" arrivalSpeed="0.00" from="128" to="1535"/>
  <trip id="randUni1596:1" type="random" depart="471.00" departPos="93.57" arrivalPos="28.69" arrivalSpeed="0.00" from="-1429" to="-840"/>
  <trip id="randUni11760:1" type="random" depart="474.00" departPos="80.67" arrivalPos="117.14" arrivalSpeed="0.00" from="1027" to="-876"/>
  <trip id="randUni555:1" type="random" depart="489.00" departPos="47.33" arrivalPos="120.87" arrivalSpeed="0.00" from="13" to="348"/>
  <trip id="randUni19534:1" type="random" depart="495.00" departPos="6.29" arrivalPos="137.23" arrivalSpeed="0.00" from="-116" to="1517"/>
  <trip id="randUni8351:1" type="random" depart="503.00" departPos="70.57" arrivalPos="70.61" arrivalSpeed="0.00" from="1199" to="119"/>
  <trip id="randUni6926:1" type="random" depart="510.00" departPos="101.14" arrivalPos="104.79" arrivalSpeed="0.00" from="-1011" to="674"/>
  <trip id="randUni6930:1" type="random" depart="510.00" departPos="28.36" arrivalPos="99.75" arrivalSpeed="0.00" from="-674" to="117"/>
  <trip id="randUni12258:1" type="random" depart="515.00" departPos="22.19" arrivalPos="17.00" arrivalSpeed="0.00" from="25" to="1093"/>
  <trip id="randUni17490:1" type="random" depart="516.00" departPos="53.50" arrivalPos="92.67" arrivalSpeed="0.00" from="846" to="1523"/>
  <trip id="randUni13409:1" type="random" depart="535.00" departPos="34.10" arrivalPos="137.81" arrivalSpeed="0.00" from="-1404" to="-319"/>
  <trip id="randUni6159:1" type="random" depart="547.00" departPos="14.90" arrivalPos="137.57" arrivalSpeed="0.00" from="614" to="-698"/>
  <trip id="randUni12544:1" type="random" depart="561.00" departPos="11.96" arrivalPos="136.17" arrivalSpeed="0.00" from="-210" to="-1431"/>
  <trip id="randUni852:1" type="random" depart="571.00" departPos="65.24" arrivalPos="162.91" arrivalSpeed="0.00" from="-1524" to="-11"/>
  <trip id="randUni8950:1" type="random" depart="599.00" departPos="119.60" arrivalPos="87.77" arrivalSpeed="0.00" from="569" to="505"/>
  <trip id="randUni14982:1" type="random" depart="612.00" departPos="136.19" arrivalPos="96.90" arrivalSpeed="0.00" from="1357" to="-1783"/>
  <trip id="randUni7509:1" type="random" depart="613.00" departPos="2.06" arrivalPos="148.69" arrivalSpeed="0.00" from="585" to="-1447"/>
  <trip id="randUni13920:1" type="random" depart="613.00" departPos="142.20" arrivalPos="79.27" arrivalSpeed="0.00" from="-1499" to="-3"/>
  <trip id="randUni11854:1" type="random" depart="616.00" departPos="95.04" arrivalPos="15.81" arrivalSpeed="0.00" from="-1391" to="1798"/>
  <trip id="randUni767:1" type="random" depart="621.00" departPos="107.42" arrivalPos="131.57" arrivalSpeed="0.00" from="-1441" to="1447"/>
  <trip id="randUni11244:1" type="random" depart="622.00" departPos="15.49" arrivalPos="88.22" arrivalSpeed="0.00" from="-121" to="1535"/>
  <trip id="randUni9374:1" type="random" depart="633.00" departPos="80.91" arrivalPos="89.06" arrivalSpeed="0.00" from="-523" to="1532"/>
  <trip id="randUni12657:1" type="random" depart="653.00" departPos="137.18" arrivalPos="154.67" arrivalSpeed="0.00" from="-64" to="-1773"/>
  <trip id="randUni10319:1" type="random" depart="656.00" departPos="19.69" arrivalPos="34.86" arrivalSpeed="0.00" from="1517" to="-1499"/>
  <trip id="randUni2523:1" type="random" depart="660.00" departPos="3.48" arrivalPos="95.34" arrivalSpeed="0.00" from="-381" to="1431"/>
  <trip id="randUni8742:1" type="random" depart="664.00" departPos="38.74" arrivalPos="24.34" arrivalSpeed="0.00" from="1429" to="-326"/>
  <trip id="randUni3643:1" type="random" depart="665.00" departPos="78.65" arrivalPos="228.16" arrivalSpeed="0.00" from="128" to="1783"/>
  <trip id="randUni14784:1" type="random" depart="665.00" departPos="69.12" arrivalPos="145.76" arrivalSpeed="0.00" from="119" to="-210"/>
  <trip id="randUni8735:1" type="random" depart="668.00" departPos="37.82" arrivalPos="196.40" arrivalSpeed="0.00" from="1057" to="-1767"/>
  <trip id="randUni16875:1" type="random" depart="668.00" departPos="37.37" arrivalPos="166.78" arrivalSpeed="0.00" from="126" to="-319"/>
  <trip id="randUni20804:1" type="random" depart="668.00" departPos="229.71" arrivalPos="65.05" arrivalSpeed="0.00" from="-1499" to="-1533"/>
  <trip id="randUni1762:1" type="random" depart="669.00" departPos="32.51" arrivalPos="10.22" arrivalSpeed="0.00" from="-618" to="732"/>
  <trip id="randUni11018:1" type="random" depart="673.00" departPos="170.86" arrivalPos="59.49" arrivalSpeed="0.00" from="-639" to="684"/>
  <trip id="randUni14583:1" type="random" depart="690.00" departPos="61.51" arrivalPos="113.50" arrivalSpeed="0.00" from="-1427" to="-1057"/>
  <trip id="randUni1822:1" type="random" depart="694.00" departPos="114.16" arrivalPos="78.38" arrivalSpeed="0.00" from="-326" to="-3"/>
  <trip id="randUni20849:1" type="random" depart="710.00" departPos="19.81" arrivalPos="45.47" arrivalSpeed="0.00" from="15" to="38"/>
  <trip id="randUni13932:1" type="random" depart="724.00" departPos="28.08" arrivalPos="114.72" arrivalSpeed="0.00" from="-592" to="-570"/>
  <trip id="randUni10873:1" type="random" depart="743.00" departPos="30.81" arrivalPos="104.02" arrivalSpeed="0.00" from="-348" to="-1493"/>
  <trip id="randUni20196:1" type="random" depart="756.00" departPos="100.80" arrivalPos="111.00" arrivalSpeed="0.00" from="-9" to="-1396"/>
  <trip id="randUni9590:1" type="random" depart="757.00" departPos="35.77" arrivalPos="159.34" arrivalSpeed="0.00" from="1523" to="-1533"/>
  <trip id="randUni8990:1" type="random" depart="758.00" departPos="160.09" arrivalPos="179.23" arrivalSpeed="0.00" from="-1201" to="535"/>
  <trip id="randUni9260:1" type="random" depart="762.00" departPos="76.69" arrivalPos="173.62" arrivalSpeed="0.00" from="618" to="-840"/>
  <trip id="randUni6171:1" type="random" depart="763.00" departPos="80.26" arrivalPos="53.83" arrivalSpeed="0.00" from="597" to="1029"/>
  <trip id="randUni306:1" type="random" depart="769.00" departPos="54.50" arrivalPos="132.57" arrivalSpeed="0.00" from="-344" to="-1526"/>
  <trip id="randUni14691:1" type="random" depart="771.00" departPos="54.21" arrivalPos="25.15" arrivalSpeed="0.00" from="-326" to="-698"/>
  <trip id="randUni7422:1" type="random" depart="772.00" departPos="73.33" arrivalPos="103.62" arrivalSpeed="0.00" from="1773" to="1425"/>
  <trip id="randUni7205:1" type="random" depart="776.00" departPos="191.55" arrivalPos="46.09" arrivalSpeed="0.00" from="-319" to="-585"/>
  <trip id="randUni2594:1" type="random" depart="781.00" departPos="71.91" arrivalPos="64.30" arrivalSpeed="0.00" from="-325" to="-1526"/>
  <trip id="randUni9710:1" type="random" depart="781.00" departPos="6.75" arrivalPos="93.28" arrivalSpeed="0.00" from="618" to="1415"/>
  <trip id="randUni17260:1" type="random" depart="789.00" departPos="68.05" arrivalPos="19.56" arrivalSpeed="0.00" from="-1517" to="1345"/>
  <trip id="randUni3286:1" type="random" depart="818.00" departPos="95.07" arrivalPos="137.60" arrivalSpeed="0.00" from="618" to="-523"/>
  <trip id="randUni12859:1" type="random" depart="840.00" departPos="28.73" arrivalPos="16.67" arrivalSpeed="0.00" from="-15" to="625"/>
  <trip id="randUni21143:1" type="random" depart="854.00" departPos="55.00" arrivalPos="86.68" arrivalSpeed="0.00" from="-128" to="379"/>
  <trip id="randUni13869:1" type="random" depart="874.00" departPos="33.37" arrivalPos="127.01" arrivalSpeed="0.00" from="-1199" to="-625"/>
  <trip id="randUni9156:1" type="random" depart="876.00" departPos="57.26" arrivalPos="100.20" arrivalSpeed="0.00" from="569" to="-123"/>
  <trip id="randUni20450:1" type="random" depart="879.00" departPos="58.28" arrivalPos="60.15" arrivalSpeed="0.00" from="-1883" to="-846"/>
  <trip id="randUni17454:1" type="random" depart="880.00" departPos="178.68" arrivalPos="37.14" arrivalSpeed="0.00" from="-330" to="-1357"/>
  <trip id="randUni10713:1" type="random" depart="884.00" departPos="137.74" arrivalPos="121.87" arrivalSpeed="0.00" from="-1391" to="-326"/>
  <trip id="randUni9684:1" type="random" depart="895.00" departPos="91.90" arrivalPos="4.40" arrivalSpeed="0.00" from="608" to="1429"/>
  <trip id="randUni3078:1" type="random" depart="901.00" departPos="18.01" arrivalPos="58.20" arrivalSpeed="0.00" from="621" to="650"/>
  <trip id="randUni8162:1" type="random" depart="904.00" departPos="66.47" arrivalPos="126.60" arrivalSpeed="0.00" from="-1767" to="-1357"/>
  <trip id="randUni4780:1" type="random" depart="908.00" departPos="175.18" arrivalPos="161.20" arrivalSpeed="0.00" from="333" to="1532"/>
  <trip id="randUni5282:1" type="random" depart="911.00" departPos="114.04" arrivalPos="79.02" arrivalSpeed="0.00" from="-1526" to="-876"/>
  <trip id="randUni13242:1" type="random" depart="919.00" departPos="174.72" arrivalPos="122.24" arrivalSpeed="0.00" from="-1029" to="-686"/>
  <trip id="randUni5562:1" type="random" depart="920.00" departPos="132.40" arrivalPos="144.05" arrivalSpeed="0.00" from="-1363" to="505"/>
  <trip id="randUni3082:1" type="random" depart="953.00" departPos="54.52" arrivalPos="90.52" arrivalSpeed="0.00" from="313" to="-379"/>
  <trip id="randUni4746:1" type="random" depart="975.00" departPos="111.14" arrivalPos="113.91" arrivalSpeed="0.00" from="-1343" to="15"/>
  <trip id="randUni13342:1" type="random" depart="991.00" departPos="99.03" arrivalPos="48.72" arrivalSpeed="0.00" from="1798" to="1501"/>
  <trip id="randUni8597:1" type="random" depart="1004.00" departPos="124.64" arrivalPos="32.85" arrivalSpeed="0.00" from="-1774" to="-880"/>
  <trip id="randUni19952:1" type="random" depart="1004.00" departPos="103.73" arrivalPos="47.75" arrivalSpeed="0.00" from="-1533" to="1323"/>
  <trip id="randUni12222:1" type="random" depart="1005.00" departPos="110.03" arrivalPos="118.83" arrivalSpeed="0.00" from="1441" to="-1771"/>
  <trip id="randUni2596:1" type="random" depart="1009.00" departPos="103.83" arrivalPos="144.54" arrivalSpeed="0.00" from="9" to="1524"/>
  <trip id="randUni17929:1" type="random" depart="1037.00" departPos="89.47" arrivalPos="69.83" arrivalSpeed="0.00" from="1396" to="-1774"/>
  <trip id="randUni801:1" type="random" depart="1043.00" departPos="23.49" arrivalPos="86.01" arrivalSpeed="0.00" from="-348" to="-650"/>
  <trip id="randUni18071:1" type="random" depart="1043.00" departPos="43.67" arrivalPos="38.72" arrivalSpeed="0.00" from="-1429" to="332"/>
  <trip id="randUni9238:1" type="random" depart="1065.00" departPos="58.56" arrivalPos="23.21" arrivalSpeed="0.00" from="117" to="588"/>
  <trip id="randUni3102:1" type="random" depart="1081.00" departPos="151.00" arrivalPos="76.12" arrivalSpeed="0.00" from="-639" to="1883"/>
  <trip id="randUni9951:1" type="random" depart="1081.00" departPos="20.84" arrivalPos="56.04" arrivalSpeed="0.00" from="-326" to="128"/>
  <trip id="randUni20242:1" type="random" depart="1084.00" departPos="121.51" arrivalPos="93.41" arrivalSpeed="0.00" from="64" to="379"/>
  <trip id="randUni7944:1" type="random" depart="1099.00" departPos="33.66" arrivalPos="100.19" arrivalSpeed="0.00" from="882" to="210"/>
  <trip id="randUni11507:1" type="random" depart="1106.00" departPos="85.11" arrivalPos="119.44" arrivalSpeed="0.00" from="1767" to="117"/>
  <trip id="randUni5329:1" type="random" depart="1109.00" departPos="30.72" arrivalPos="103.70" arrivalSpeed="0.00" from="-837" to="-523"/>
  <trip id="randUni17759:1" type="random" depart="1112.00" departPos="127.59" arrivalPos="22.51" arrivalSpeed="0.00" from="-523" to="-64"/>
  <trip id="randUni7654:1" type="random" depart="1114.00" departPos="101.67" arrivalPos="155.70" arrivalSpeed="0.00" from="1427" to="-25"/>
  <trip id="randUni16037:1" type="random" depart="1114.00" departPos="4.50" arrivalPos="18.99" arrivalSpeed="0.00" from="119" to="696"/>
  <trip id="randUni3365:1" type="random" depart="1115.00" departPos="44.83" arrivalPos="158.34" arrivalSpeed="0.00" from="867" to="-19"/>
  <trip id="randUni5019:1" type="random" depart="1115.00" departPos="57.28" arrivalPos="160.94" arrivalSpeed="0.00" from="333" to="-138"/>
  <trip id="randUni5309:1" type="random" depart="1120.00" departPos="150.37" arrivalPos="94.62" arrivalSpeed="0.00" from="-535" to="1357"/>
  <trip id="randUni20603:1" type="random" depart="1121.00" departPos="118.77" arrivalPos="127.07" arrivalSpeed="0.00" from="-496" to="-9"/>
  <trip id="randUni19751:1" type="random" depart="1122.00" departPos="37.63" arrivalPos="89.07" arrivalSpeed="0.00" from="-336" to="-608"/>
  <trip id="randUni5076:1" type="random" depart="1142.00" departPos="99.72" arrivalPos="83.84" arrivalSpeed="0.00" from="-319" to="-535"/>
  <trip id="randUni7972:1" type="random" depart="1150.00" departPos="122.97" arrivalPos="144.44" arrivalSpeed="0.00" from="344" to="625"/>