<configuration>
    <input>
		<additional-files value="loopDetectors.add.xml,busStop.add.xml"/>
		<net-file value="SimpleRandom.net.xml"/>
        <route-files value="test_trips.rou.xml"/>
    </input>
</configuration>

