<?xml version="1.0" encoding="UTF-8"?>

<!-- generated on 2023-10-20 14:34:31 by Eclipse SUMO netconvert Version v1_17_0+0725-de92290f118
<configuration xmlns:xsi="http://www.w3.org/2001/XMLSchema-instance" xsi:noNamespaceSchemaLocation="http://sumo.dlr.de/xsd/netconvertConfiguration.xsd">

    <input>
        <node-files value="debug.nod.xml"/>
        <edge-files value="debug.edg.xml"/>
    </input>

    <output>
        <output-file value="SimpleRandom.net.xml"/>
    </output>

    <tls_building>
        <tls.default-type value="actuated"/>
        <tls.rebuild value="true"/>
    </tls_building>

    <junctions>
        <no-internal-links value="true"/>
        <no-turnarounds value="true"/>
    </junctions>

</configuration>
-->

<net version="1.16" junctionCornerDetail="5" limitTurnSpeed="5.50" xmlns:xsi="http://www.w3.org/2001/XMLSchema-instance" xsi:noNamespaceSchemaLocation="http://sumo.dlr.de/xsd/net_file.xsd">

    <location netOffset="882.72,1528.66" convBoundary="0.00,0.00,1795.49,2428.02" origBoundary="-882.72,-1528.66,912.78,899.36" projParameter="!"/>

    <edge id="-1005" from="1004" to="611" priority="-1">
        <lane id="-1005_0" index="0" speed="13.89" length="136.56" width="3.20" shape="752.50,1822.55 859.26,1854.98"/>
        <lane id="-1005_1" index="1" speed="13.89" length="136.56" width="3.20" shape="751.57,1825.61 858.33,1858.04"/>
        <lane id="-1005_2" index="2" speed="13.89" length="136.56" width="3.20" shape="750.64,1828.68 857.40,1861.10"/>
    </edge>
    <edge id="-1011" from="1010" to="611" priority="-1">
        <lane id="-1011_0" index="0" speed="13.89" length="247.86" width="3.20" shape="768.25,2072.91 852.82,1888.09"/>
        <lane id="-1011_1" index="1" speed="13.89" length="247.86" width="3.20" shape="771.16,2074.24 855.73,1889.42"/>
        <lane id="-1011_2" index="2" speed="13.89" length="247.86" width="3.20" shape="774.07,2075.58 858.64,1890.75"/>
    </edge>
    <edge id="-1027" from="1026" to="697" priority="-1">
        <lane id="-1027_0" index="0" speed="13.89" length="232.60" width="3.20" shape="586.99,1709.31 601.63,1507.49"/>
        <lane id="-1027_1" index="1" speed="13.89" length="232.60" width="3.20" shape="590.18,1709.54 604.82,1507.72"/>
        <lane id="-1027_2" index="2" speed="13.89" length="232.60" width="3.20" shape="593.38,1709.77 608.01,1507.95"/>
    </edge>
    <edge id="-1029" from="1004" to="727" priority="-1">
        <lane id="-1029_0" index="0" speed="13.89" length="176.99" width="3.20" shape="728.60,1824.02 648.04,1707.60"/>
        <lane id="-1029_1" index="1" speed="13.89" length="176.99" width="3.20" shape="731.23,1822.20 650.67,1705.78"/>
        <lane id="-1029_2" index="2" speed="13.89" length="176.99" width="3.20" shape="733.86,1820.37 653.31,1703.96"/>
    </edge>
    <edge id="-1033" from="881" to="733" priority="-1">
        <lane id="-1033_0" index="0" speed="13.89" length="107.87" width="3.20" shape="736.23,806.70 652.78,830.56"/>
        <lane id="-1033_1" index="1" speed="13.89" length="107.87" width="3.20" shape="735.35,803.63 651.90,827.48"/>
        <lane id="-1033_2" index="2" speed="13.89" length="107.87" width="3.20" shape="734.47,800.55 651.03,824.41"/>
    </edge>
    <edge id="-1057" from="1056" to="522" priority="-1">
        <lane id="-1057_0" index="0" speed="13.89" length="241.32" width="3.20" shape="1460.24,1087.68 1255.67,1012.67"/>
        <lane id="-1057_1" index="1" speed="13.89" length="241.32" width="3.20" shape="1461.34,1084.68 1256.77,1009.66"/>
        <lane id="-1057_2" index="2" speed="13.89" length="241.32" width="3.20" shape="1462.44,1081.67 1257.87,1006.66"/>
    </edge>
    <edge id="-1093" from="1092" to="1004" priority="-1">
        <lane id="-1093_0" index="0" speed="13.89" length="171.81" width="3.20" shape="651.82,1943.59 728.36,1831.07"/>
        <lane id="-1093_1" index="1" speed="13.89" length="171.81" width="3.20" shape="654.47,1945.39 731.00,1832.87"/>
        <lane id="-1093_2" index="2" speed="13.89" length="171.81" width="3.20" shape="657.11,1947.19 733.65,1834.67"/>
    </edge>
    <edge id="-11" from="10" to="1" priority="-1">
        <lane id="-11_0" index="0" speed="13.89" length="169.92" width="3.20" shape="731.22,1567.30 864.29,1526.00"/>
        <lane id="-11_1" index="1" speed="13.89" length="169.92" width="3.20" shape="732.17,1570.35 865.23,1529.06"/>
        <lane id="-11_2" index="2" speed="13.89" length="169.92" width="3.20" shape="733.11,1573.41 866.18,1532.12"/>
    </edge>
    <edge id="-116" from="115" to="12" priority="-1">
        <lane id="-116_0" index="0" speed="13.89" length="169.43" width="3.20" shape="1047.25,1233.70 978.81,1336.24"/>
        <lane id="-116_1" index="1" speed="13.89" length="169.43" width="3.20" shape="1044.59,1231.93 976.15,1334.47"/>
        <lane id="-116_2" index="2" speed="13.89" length="169.43" width="3.20" shape="1041.93,1230.15 973.49,1332.69"/>
    </edge>
    <edge id="-117" from="37" to="14" priority="-1">
        <lane id="-117_0" index="0" speed="13.89" length="122.36" width="3.20" shape="871.21,1182.70 787.55,1175.58"/>
        <lane id="-117_1" index="1" speed="13.89" length="122.36" width="3.20" shape="871.48,1179.51 787.82,1172.39"/>
        <lane id="-117_2" index="2" speed="13.89" length="122.36" width="3.20" shape="871.75,1176.32 788.09,1169.20"/>
    </edge>
    <edge id="-119" from="118" to="14" priority="-1">
        <lane id="-119_0" index="0" speed="13.89" length="123.01" width="3.20" shape="660.49,1194.99 753.31,1162.57"/>
        <lane id="-119_1" index="1" speed="13.89" length="123.01" width="3.20" shape="661.54,1198.01 754.37,1165.59"/>
        <lane id="-119_2" index="2" speed="13.89" length="123.01" width="3.20" shape="662.59,1201.03 755.42,1168.62"/>
    </edge>
    <edge id="-1199" from="1198" to="1026" priority="-1">
        <lane id="-1199_0" index="0" speed="13.89" length="103.96" width="3.20" shape="601.32,1825.23 588.15,1735.99"/>
        <lane id="-1199_1" index="1" speed="13.89" length="103.96" width="3.20" shape="604.49,1824.76 591.32,1735.53"/>
        <lane id="-1199_2" index="2" speed="13.89" length="103.96" width="3.20" shape="607.66,1824.29 594.48,1735.06"/>
    </edge>
    <edge id="-1201" from="1200" to="1026" priority="-1">
        <lane id="-1201_0" index="0" speed="13.89" length="192.84" width="3.20" shape="401.83,1738.15 579.87,1715.39"/>
        <lane id="-1201_1" index="1" speed="13.89" length="192.84" width="3.20" shape="402.23,1741.33 580.28,1718.56"/>
        <lane id="-1201_2" index="2" speed="13.89" length="192.84" width="3.20" shape="402.64,1744.50 580.69,1721.73"/>
    </edge>
    <edge id="-121" from="63" to="18" priority="-1">
        <lane id="-121_0" index="0" speed="13.89" length="211.36" width="3.20" shape="1122.51,1329.59 1264.50,1444.80"/>
        <lane id="-121_1" index="1" speed="13.89" length="211.36" width="3.20" shape="1120.49,1332.08 1262.48,1447.28"/>
        <lane id="-121_2" index="2" speed="13.89" length="211.36" width="3.20" shape="1118.48,1334.56 1260.47,1449.77"/>
    </edge>
    <edge id="-123" from="122" to="18" priority="-1">
        <lane id="-123_0" index="0" speed="13.89" length="154.98" width="3.20" shape="1328.68,1330.27 1288.49,1449.47"/>
        <lane id="-123_1" index="1" speed="13.89" length="154.98" width="3.20" shape="1325.65,1329.24 1285.46,1448.45"/>
        <lane id="-123_2" index="2" speed="13.89" length="154.98" width="3.20" shape="1322.62,1328.22 1282.43,1447.43"/>
    </edge>
    <edge id="-125" from="124" to="18" priority="-1">
        <lane id="-125_0" index="0" speed="13.89" length="186.93" width="3.20" shape="1386.91,1593.62 1276.65,1476.96"/>
        <lane id="-125_1" index="1" speed="13.89" length="186.93" width="3.20" shape="1389.23,1591.43 1278.97,1474.76"/>
        <lane id="-125_2" index="2" speed="13.89" length="186.93" width="3.20" shape="1391.56,1589.23 1281.30,1472.56"/>
    </edge>
    <edge id="-126" from="124" to="24" priority="-1">
        <lane id="-126_0" index="0" speed="13.89" length="226.23" width="3.20" shape="1394.23,1614.74 1232.29,1713.32"/>
        <lane id="-126_1" index="1" speed="13.89" length="226.23" width="3.20" shape="1392.56,1612.01 1230.62,1710.59"/>
        <lane id="-126_2" index="2" speed="13.89" length="226.23" width="3.20" shape="1390.90,1609.28 1228.96,1707.85"/>
    </edge>
    <edge id="-128" from="127" to="24" priority="-1">
        <lane id="-128_0" index="0" speed="13.89" length="114.66" width="3.20" shape="1217.32,1816.13 1205.96,1741.43"/>
        <lane id="-128_1" index="1" speed="13.89" length="114.66" width="3.20" shape="1220.48,1815.65 1209.12,1740.95"/>
        <lane id="-128_2" index="2" speed="13.89" length="114.66" width="3.20" shape="1223.65,1815.17 1212.29,1740.47"/>
    </edge>
    <edge id="-13" from="12" to="2" priority="-1">
        <lane id="-13_0" index="0" speed="13.89" length="139.68" width="3.20" shape="930.90,1350.94 846.13,1317.22"/>
        <lane id="-13_1" index="1" speed="13.89" length="139.68" width="3.20" shape="932.08,1347.97 847.31,1314.24"/>
        <lane id="-13_2" index="2" speed="13.89" length="139.68" width="3.20" shape="933.27,1344.99 848.49,1311.27"/>
    </edge>
    <edge id="-1323" from="1322" to="881" priority="-1">
        <lane id="-1323_0" index="0" speed="13.89" length="244.62" width="3.20" shape="729.30,573.80 751.96,782.40"/>
        <lane id="-1323_1" index="1" speed="13.89" length="244.62" width="3.20" shape="726.12,574.14 748.78,782.74"/>
        <lane id="-1323_2" index="2" speed="13.89" length="244.62" width="3.20" shape="722.94,574.49 745.60,783.09"/>
    </edge>
    <edge id="-1342" from="1010" to="1092" priority="-1">
        <lane id="-1342_0" index="0" speed="13.89" length="174.79" width="3.20" shape="745.89,2081.60 646.85,1983.48"/>
        <lane id="-1342_1" index="1" speed="13.89" length="174.79" width="3.20" shape="748.14,2079.32 649.10,1981.20"/>
        <lane id="-1342_2" index="2" speed="13.89" length="174.79" width="3.20" shape="750.39,2077.05 651.36,1978.93"/>
    </edge>
    <edge id="-1343" from="1198" to="1092" priority="-1">
        <lane id="-1343_0" index="0" speed="13.89" length="148.97" width="3.20" shape="617.18,1823.03 645.76,1942.48"/>
        <lane id="-1343_1" index="1" speed="13.89" length="148.97" width="3.20" shape="614.07,1823.78 642.65,1943.23"/>
        <lane id="-1343_2" index="2" speed="13.89" length="148.97" width="3.20" shape="610.95,1824.52 639.54,1943.97"/>
    </edge>
    <edge id="-1345" from="1344" to="1010" priority="-1">
        <lane id="-1345_0" index="0" speed="13.89" length="207.22" width="3.20" shape="576.65,2110.97 743.86,2087.68"/>
        <lane id="-1345_1" index="1" speed="13.89" length="207.22" width="3.20" shape="577.09,2114.14 744.30,2090.85"/>
        <lane id="-1345_2" index="2" speed="13.89" length="207.22" width="3.20" shape="577.53,2117.31 744.74,2094.02"/>
    </edge>
    <edge id="-1357" from="1356" to="879" priority="-1">
        <lane id="-1357_0" index="0" speed="13.89" length="137.51" width="3.20" shape="1212.10,768.88 1136.26,686.05"/>
        <lane id="-1357_1" index="1" speed="13.89" length="137.51" width="3.20" shape="1214.46,766.72 1138.62,683.89"/>
        <lane id="-1357_2" index="2" speed="13.89" length="137.51" width="3.20" shape="1216.82,764.56 1140.98,681.73"/>
    </edge>
    <edge id="-1359" from="875" to="1322" priority="-1">
        <lane id="-1359_0" index="0" speed="13.89" length="235.21" width="3.20" shape="907.86,663.00 734.74,570.13"/>
        <lane id="-1359_1" index="1" speed="13.89" length="235.21" width="3.20" shape="909.37,660.18 736.25,567.31"/>
        <lane id="-1359_2" index="2" speed="13.89" length="235.21" width="3.20" shape="910.89,657.36 737.77,564.49"/>
    </edge>
    <edge id="-1363" from="1362" to="1322" priority="-1">
        <lane id="-1363_0" index="0" speed="13.89" length="175.91" width="3.20" shape="664.61,400.72 716.88,526.71"/>
        <lane id="-1363_1" index="1" speed="13.89" length="175.91" width="3.20" shape="661.65,401.95 713.92,527.94"/>
        <lane id="-1363_2" index="2" speed="13.89" length="175.91" width="3.20" shape="658.70,403.18 710.97,529.16"/>
    </edge>
    <edge id="-1373" from="1372" to="1322" priority="-1">
        <lane id="-1373_0" index="0" speed="13.89" length="238.58" width="3.20" shape="823.39,367.31 737.37,534.30"/>
        <lane id="-1373_1" index="1" speed="13.89" length="238.58" width="3.20" shape="820.55,365.84 734.52,532.83"/>
        <lane id="-1373_2" index="2" speed="13.89" length="238.58" width="3.20" shape="817.70,364.38 731.68,531.37"/>
    </edge>
    <edge id="-138" from="137" to="24" priority="-1">
        <lane id="-138_0" index="0" speed="13.89" length="218.95" width="3.20" shape="1046.71,1821.33 1189.88,1721.80"/>
        <lane id="-138_1" index="1" speed="13.89" length="218.95" width="3.20" shape="1048.54,1823.96 1191.70,1724.43"/>
        <lane id="-138_2" index="2" speed="13.89" length="218.95" width="3.20" shape="1050.36,1826.58 1193.53,1727.06"/>
    </edge>
    <edge id="-1388" from="1387" to="532" priority="-1">
        <lane id="-1388_0" index="0" speed="13.89" length="161.55" width="3.20" shape="1775.79,2055.55 1642.30,2016.74"/>
        <lane id="-1388_1" index="1" speed="13.89" length="161.55" width="3.20" shape="1776.68,2052.48 1643.19,2013.67"/>
        <lane id="-1388_2" index="2" speed="13.89" length="161.55" width="3.20" shape="1777.57,2049.41 1644.08,2010.60"/>
    </edge>
    <edge id="-1391" from="1387" to="568" priority="-1">
        <lane id="-1391_0" index="0" speed="13.89" length="153.69" width="3.20" shape="1785.74,2035.63 1773.25,1909.17"/>
        <lane id="-1391_1" index="1" speed="13.89" length="153.69" width="3.20" shape="1788.92,2035.32 1776.43,1908.85"/>
        <lane id="-1391_2" index="2" speed="13.89" length="153.69" width="3.20" shape="1792.11,2035.00 1779.62,1908.54"/>
    </edge>
    <edge id="-1396" from="1395" to="1344" priority="-1">
        <lane id="-1396_0" index="0" speed="13.89" length="114.86" width="3.20" shape="570.57,2006.08 570.86,2105.94"/>
        <lane id="-1396_1" index="1" speed="13.89" length="114.86" width="3.20" shape="567.37,2006.09 567.66,2105.95"/>
        <lane id="-1396_2" index="2" speed="13.89" length="114.86" width="3.20" shape="564.17,2006.10 564.46,2105.96"/>
    </edge>
    <edge id="-1404" from="1403" to="1344" priority="-1">
        <lane id="-1404_0" index="0" speed="13.89" length="140.12" width="3.20" shape="451.14,2205.85 551.28,2120.36"/>
        <lane id="-1404_1" index="1" speed="13.89" length="140.12" width="3.20" shape="453.21,2208.28 553.36,2122.79"/>
        <lane id="-1404_2" index="2" speed="13.89" length="140.12" width="3.20" shape="455.29,2210.71 555.44,2125.23"/>
    </edge>
    <edge id="-1415" from="522" to="1356" priority="-1">
        <lane id="-1415_0" index="0" speed="13.89" length="224.35" width="3.20" shape="1227.97,986.88 1219.05,781.88"/>
        <lane id="-1415_1" index="1" speed="13.89" length="224.35" width="3.20" shape="1231.17,986.75 1222.25,781.75"/>
        <lane id="-1415_2" index="2" speed="13.89" length="224.35" width="3.20" shape="1234.36,986.61 1225.45,781.61"/>
    </edge>
    <edge id="-1425" from="1424" to="1356" priority="-1">
        <lane id="-1425_0" index="0" speed="13.89" length="210.96" width="3.20" shape="1384.92,654.32 1241.68,771.04"/>
        <lane id="-1425_1" index="1" speed="13.89" length="210.96" width="3.20" shape="1382.90,651.84 1239.65,768.56"/>
        <lane id="-1425_2" index="2" speed="13.89" length="210.96" width="3.20" shape="1380.88,649.36 1237.63,766.08"/>
    </edge>
    <edge id="-1427" from="1372" to="1362" priority="-1">
        <lane id="-1427_0" index="0" speed="13.89" length="183.50" width="3.20" shape="805.30,355.23 667.97,393.80"/>
        <lane id="-1427_1" index="1" speed="13.89" length="183.50" width="3.20" shape="804.43,352.15 667.11,390.71"/>
        <lane id="-1427_2" index="2" speed="13.89" length="183.50" width="3.20" shape="803.57,349.07 666.24,387.63"/>
    </edge>
    <edge id="-1429" from="1428" to="1362" priority="-1">
        <lane id="-1429_0" index="0" speed="13.89" length="125.55" width="3.20" shape="552.09,386.34 640.50,382.56"/>
        <lane id="-1429_1" index="1" speed="13.89" length="125.55" width="3.20" shape="552.23,389.54 640.63,385.76"/>
        <lane id="-1429_2" index="2" speed="13.89" length="125.55" width="3.20" shape="552.37,392.74 640.77,388.96"/>
    </edge>
    <edge id="-1431" from="1430" to="1372" priority="-1">
        <lane id="-1431_0" index="0" speed="13.89" length="150.71" width="3.20" shape="944.37,268.56 853.89,332.21"/>
        <lane id="-1431_1" index="1" speed="13.89" length="150.71" width="3.20" shape="942.53,265.95 852.05,329.59"/>
        <lane id="-1431_2" index="2" speed="13.89" length="150.71" width="3.20" shape="940.69,263.33 850.21,326.97"/>
    </edge>
    <edge id="-1441" from="1440" to="1372" priority="-1">
        <lane id="-1441_0" index="0" speed="13.89" length="207.00" width="3.20" shape="1002.91,387.32 852.79,354.12"/>
        <lane id="-1441_1" index="1" speed="13.89" length="207.00" width="3.20" shape="1003.60,384.20 853.48,350.99"/>
        <lane id="-1441_2" index="2" speed="13.89" length="207.00" width="3.20" shape="1004.30,381.07 854.17,347.87"/>
    </edge>
    <edge id="-1447" from="1446" to="1372" priority="-1">
        <lane id="-1447_0" index="0" speed="13.89" length="237.63" width="3.20" shape="936.43,527.93 835.76,367.56"/>
        <lane id="-1447_1" index="1" speed="13.89" length="237.63" width="3.20" shape="939.14,526.23 838.47,365.86"/>
        <lane id="-1447_2" index="2" speed="13.89" length="237.63" width="3.20" shape="941.85,524.53 841.18,364.16"/>
    </edge>
    <edge id="-1464" from="1463" to="1387" priority="-1">
        <lane id="-1464_0" index="0" speed="13.89" length="102.02" width="3.20" shape="1759.51,2148.75 1784.04,2063.78"/>
        <lane id="-1464_1" index="1" speed="13.89" length="102.02" width="3.20" shape="1762.59,2149.64 1787.11,2064.67"/>
        <lane id="-1464_2" index="2" speed="13.89" length="102.02" width="3.20" shape="1765.66,2150.53 1790.19,2065.56"/>
    </edge>
    <edge id="-1483" from="1482" to="1424" priority="-1">
        <lane id="-1483_0" index="0" speed="13.89" length="124.19" width="3.20" shape="1466.00,540.98 1406.52,629.73"/>
        <lane id="-1483_1" index="1" speed="13.89" length="124.19" width="3.20" shape="1463.34,539.20 1403.86,627.95"/>
        <lane id="-1483_2" index="2" speed="13.89" length="124.19" width="3.20" shape="1460.68,537.42 1401.20,626.17"/>
    </edge>
    <edge id="-1493" from="1492" to="1424" priority="-1">
        <lane id="-1493_0" index="0" speed="13.89" length="181.44" width="3.20" shape="1293.19,500.56 1385.96,621.06"/>
        <lane id="-1493_1" index="1" speed="13.89" length="181.44" width="3.20" shape="1290.65,502.51 1383.43,623.01"/>
        <lane id="-1493_2" index="2" speed="13.89" length="181.44" width="3.20" shape="1288.11,504.46 1380.89,624.96"/>
    </edge>
    <edge id="-1494" from="1446" to="879" priority="-1">
        <lane id="-1494_0" index="0" speed="13.89" length="221.31" width="3.20" shape="974.19,546.09 1123.52,654.20"/>
        <lane id="-1494_1" index="1" speed="13.89" length="221.31" width="3.20" shape="972.32,548.69 1121.64,656.80"/>
        <lane id="-1494_2" index="2" speed="13.89" length="221.31" width="3.20" shape="970.44,551.28 1119.77,659.39"/>
    </edge>
    <edge id="-1499" from="1498" to="1428" priority="-1">
        <lane id="-1499_0" index="0" speed="13.89" length="248.56" width="3.20" shape="510.56,173.66 531.31,368.76"/>
        <lane id="-1499_1" index="1" speed="13.89" length="248.56" width="3.20" shape="507.38,173.99 528.12,369.10"/>
        <lane id="-1499_2" index="2" speed="13.89" length="248.56" width="3.20" shape="504.20,174.33 524.94,369.44"/>
    </edge>
    <edge id="-15" from="14" to="2" priority="-1">
        <lane id="-15_0" index="0" speed="13.89" length="148.29" width="3.20" shape="783.59,1181.14 832.27,1290.98"/>
        <lane id="-15_1" index="1" speed="13.89" length="148.29" width="3.20" shape="780.66,1182.43 829.34,1292.28"/>
        <lane id="-15_2" index="2" speed="13.89" length="148.29" width="3.20" shape="777.74,1183.73 826.41,1293.57"/>
    </edge>
    <edge id="-1501" from="1500" to="1428" priority="-1">
        <lane id="-1501_0" index="0" speed="13.89" length="150.57" width="3.20" shape="418.58,471.82 505.79,401.55"/>
        <lane id="-1501_1" index="1" speed="13.89" length="150.57" width="3.20" shape="420.58,474.31 507.80,404.04"/>
        <lane id="-1501_2" index="2" speed="13.89" length="150.57" width="3.20" shape="422.59,476.80 509.81,406.53"/>
    </edge>
    <edge id="-1517" from="1516" to="1428" priority="-1">
        <lane id="-1517_0" index="0" speed="13.89" length="180.58" width="3.20" shape="641.44,275.32 549.45,380.85"/>
        <lane id="-1517_1" index="1" speed="13.89" length="180.58" width="3.20" shape="639.03,273.22 547.04,378.74"/>
        <lane id="-1517_2" index="2" speed="13.89" length="180.58" width="3.20" shape="636.62,271.12 544.63,376.64"/>
    </edge>
    <edge id="-1523" from="1522" to="1428" priority="-1">
        <lane id="-1523_0" index="0" speed="13.89" length="175.15" width="3.20" shape="549.61,545.06 522.34,416.33"/>
        <lane id="-1523_1" index="1" speed="13.89" length="175.15" width="3.20" shape="552.74,544.40 525.47,415.66"/>
        <lane id="-1523_2" index="2" speed="13.89" length="175.15" width="3.20" shape="555.87,543.73 528.60,415.00"/>
    </edge>
    <edge id="-1524" from="1440" to="1430" priority="-1">
        <lane id="-1524_0" index="0" speed="13.89" length="153.25" width="3.20" shape="1009.93,366.75 955.24,275.60"/>
        <lane id="-1524_1" index="1" speed="13.89" length="153.25" width="3.20" shape="1012.68,365.10 957.99,273.95"/>
        <lane id="-1524_2" index="2" speed="13.89" length="153.25" width="3.20" shape="1015.42,363.45 960.73,272.30"/>
    </edge>
    <edge id="-1526" from="1525" to="1430" priority="-1">
        <lane id="-1526_0" index="0" speed="13.89" length="175.48" width="3.20" shape="920.32,92.75 956.48,240.55"/>
        <lane id="-1526_1" index="1" speed="13.89" length="175.48" width="3.20" shape="917.21,93.51 953.37,241.31"/>
        <lane id="-1526_2" index="2" speed="13.89" length="175.48" width="3.20" shape="914.10,94.27 950.26,242.07"/>
    </edge>
    <edge id="-1532" from="1531" to="1430" priority="-1">
        <lane id="-1532_0" index="0" speed="13.89" length="238.15" width="3.20" shape="1189.73,257.97 972.25,261.45"/>
        <lane id="-1532_1" index="1" speed="13.89" length="238.15" width="3.20" shape="1189.68,254.77 972.20,258.25"/>
        <lane id="-1532_2" index="2" speed="13.89" length="238.15" width="3.20" shape="1189.63,251.57 972.15,255.05"/>
    </edge>
    <edge id="-1533" from="1446" to="1440" priority="-1">
        <lane id="-1533_0" index="0" speed="13.89" length="173.94" width="3.20" shape="956.65,519.06 1016.09,396.24"/>
        <lane id="-1533_1" index="1" speed="13.89" length="173.94" width="3.20" shape="959.53,520.45 1018.97,397.63"/>
        <lane id="-1533_2" index="2" speed="13.89" length="173.94" width="3.20" shape="962.41,521.85 1021.86,399.03"/>
    </edge>
    <edge id="-1535" from="875" to="1446" priority="-1">
        <lane id="-1535_0" index="0" speed="13.89" length="125.27" width="3.20" shape="922.17,645.85 942.58,557.92"/>
        <lane id="-1535_1" index="1" speed="13.89" length="125.27" width="3.20" shape="925.29,646.57 945.70,558.64"/>
        <lane id="-1535_2" index="2" speed="13.89" length="125.27" width="3.20" shape="928.40,647.29 948.82,559.37"/>
    </edge>
    <edge id="-17" from="12" to="8" priority="-1">
        <lane id="-17_0" index="0" speed="13.89" length="228.71" width="3.20" shape="976.33,1364.42 1086.42,1512.63"/>
        <lane id="-17_1" index="1" speed="13.89" length="228.71" width="3.20" shape="973.77,1366.33 1083.86,1514.54"/>
        <lane id="-17_2" index="2" speed="13.89" length="228.71" width="3.20" shape="971.20,1368.24 1081.29,1516.45"/>
    </edge>
    <edge id="-1767" from="879" to="1492" priority="-1">
        <lane id="-1767_0" index="0" speed="13.89" length="228.19" width="3.20" shape="1135.95,656.43 1265.69,500.05"/>
        <lane id="-1767_1" index="1" speed="13.89" length="228.19" width="3.20" shape="1138.41,658.47 1268.16,502.10"/>
        <lane id="-1767_2" index="2" speed="13.89" length="228.19" width="3.20" shape="1140.87,660.51 1270.62,504.14"/>
    </edge>
    <edge id="-1769" from="1516" to="1498" priority="-1">
        <lane id="-1769_0" index="0" speed="13.89" length="182.59" width="3.20" shape="619.83,250.32 515.88,170.67"/>
        <lane id="-1769_1" index="1" speed="13.89" length="182.59" width="3.20" shape="621.77,247.77 517.82,168.13"/>
        <lane id="-1769_2" index="2" speed="13.89" length="182.59" width="3.20" shape="623.72,245.23 519.77,165.59"/>
    </edge>
    <edge id="-1771" from="1770" to="1498" priority="-1">
        <lane id="-1771_0" index="0" speed="13.89" length="232.90" width="3.20" shape="312.54,273.02 478.50,153.76"/>
        <lane id="-1771_1" index="1" speed="13.89" length="232.90" width="3.20" shape="314.41,275.62 480.37,156.36"/>
        <lane id="-1771_2" index="2" speed="13.89" length="232.90" width="3.20" shape="316.28,278.22 482.23,158.96"/>
    </edge>
    <edge id="-1773" from="1772" to="1500" priority="-1">
        <lane id="-1773_0" index="0" speed="13.89" length="215.61" width="3.20" shape="416.59,684.60 402.58,511.55"/>
        <lane id="-1773_1" index="1" speed="13.89" length="215.61" width="3.20" shape="419.78,684.34 405.77,511.30"/>
        <lane id="-1773_2" index="2" speed="13.89" length="215.61" width="3.20" shape="422.97,684.09 408.95,511.04"/>
    </edge>
    <edge id="-1774" from="1522" to="1500" priority="-1">
        <lane id="-1774_0" index="0" speed="13.89" length="171.71" width="3.20" shape="537.41,563.25 424.09,506.51"/>
        <lane id="-1774_1" index="1" speed="13.89" length="171.71" width="3.20" shape="538.85,560.39 425.52,503.65"/>
        <lane id="-1774_2" index="2" speed="13.89" length="171.71" width="3.20" shape="540.28,557.53 426.95,500.78"/>
    </edge>
    <edge id="-1775" from="1770" to="1500" priority="-1">
        <lane id="-1775_0" index="0" speed="13.89" length="227.95" width="3.20" shape="321.37,288.00 409.12,471.91"/>
        <lane id="-1775_1" index="1" speed="13.89" length="227.95" width="3.20" shape="318.48,289.38 406.23,473.29"/>
        <lane id="-1775_2" index="2" speed="13.89" length="227.95" width="3.20" shape="315.59,290.76 403.34,474.67"/>
    </edge>
    <edge id="-1783" from="1782" to="1516" priority="-1">
        <lane id="-1783_0" index="0" speed="13.89" length="233.42" width="3.20" shape="810.45,99.90 668.26,246.59"/>
        <lane id="-1783_1" index="1" speed="13.89" length="233.42" width="3.20" shape="808.15,97.67 665.97,244.36"/>
        <lane id="-1783_2" index="2" speed="13.89" length="233.42" width="3.20" shape="805.86,95.44 663.67,242.13"/>
    </edge>
    <edge id="-1797" from="1796" to="1516" priority="-1">
        <lane id="-1797_0" index="0" speed="13.89" length="233.00" width="3.20" shape="636.57,26.34 650.97,233.33"/>
        <lane id="-1797_1" index="1" speed="13.89" length="233.00" width="3.20" shape="633.38,26.57 647.78,233.55"/>
        <lane id="-1797_2" index="2" speed="13.89" length="233.00" width="3.20" shape="630.19,26.79 644.59,233.77"/>
    </edge>
    <edge id="-1798" from="1772" to="1522" priority="-1">
        <lane id="-1798_0" index="0" speed="13.89" length="193.87" width="3.20" shape="435.28,684.31 538.82,579.31"/>
        <lane id="-1798_1" index="1" speed="13.89" length="193.87" width="3.20" shape="437.55,686.55 541.10,581.56"/>
        <lane id="-1798_2" index="2" speed="13.89" length="193.87" width="3.20" shape="439.83,688.80 543.38,583.81"/>
    </edge>
    <edge id="-1882" from="1881" to="1522" priority="-1">
        <lane id="-1882_0" index="0" speed="13.89" length="245.86" width="3.20" shape="569.94,812.69 556.01,592.71"/>
        <lane id="-1882_1" index="1" speed="13.89" length="245.86" width="3.20" shape="573.13,812.48 559.21,592.51"/>
        <lane id="-1882_2" index="2" speed="13.89" length="245.86" width="3.20" shape="576.32,812.28 562.40,592.31"/>
    </edge>
    <edge id="-1883" from="1782" to="1525" priority="-1">
        <lane id="-1883_0" index="0" speed="13.89" length="102.90" width="3.20" shape="810.16,83.47 897.55,76.31"/>
        <lane id="-1883_1" index="1" speed="13.89" length="102.90" width="3.20" shape="810.42,86.66 897.81,79.50"/>
        <lane id="-1883_2" index="2" speed="13.89" length="102.90" width="3.20" shape="810.69,89.85 898.07,82.68"/>
    </edge>
    <edge id="-1891" from="1890" to="1525" priority="-1">
        <lane id="-1891_0" index="0" speed="13.89" length="217.26" width="3.20" shape="1113.49,7.39 923.61,86.25"/>
        <lane id="-1891_1" index="1" speed="13.89" length="217.26" width="3.20" shape="1112.26,4.43 922.38,83.29"/>
        <lane id="-1891_2" index="2" speed="13.89" length="217.26" width="3.20" shape="1111.03,1.48 921.16,80.34"/>
    </edge>
    <edge id="-19" from="18" to="8" priority="-1">
        <lane id="-19_0" index="0" speed="13.89" length="195.02" width="3.20" shape="1259.38,1478.81 1111.79,1538.28"/>
        <lane id="-19_1" index="1" speed="13.89" length="195.02" width="3.20" shape="1258.19,1475.84 1110.59,1535.31"/>
        <lane id="-19_2" index="2" speed="13.89" length="195.02" width="3.20" shape="1256.99,1472.87 1109.40,1532.34"/>
    </edge>
    <edge id="-210" from="209" to="24" priority="-1">
        <lane id="-210_0" index="0" speed="13.89" length="148.23" width="3.20" shape="1315.16,1782.62 1227.04,1735.31"/>
        <lane id="-210_1" index="1" speed="13.89" length="148.23" width="3.20" shape="1316.67,1779.80 1228.55,1732.49"/>