<?xml version="1.0" encoding="UTF-8"?>

<!-- generated on 2023-09-21 14:27:41 by Eclipse SUMO netconvert Version v1_17_0+0725-de92290f118
<configuration xmlns:xsi="http://www.w3.org/2001/XMLSchema-instance" xsi:noNamespaceSchemaLocation="http://sumo.dlr.de/xsd/netconvertConfiguration.xsd">

    <input>
        <node-files value="debug.nod.xml"/>
        <edge-files value="debug.edg.xml"/>
    </input>

    <output>
        <output-file value="SimpleRandom.net.xml"/>
    </output>

    <junctions>
        <no-turnarounds value="true"/>
    </junctions>

</configuration>
-->

<net version="1.16" junctionCornerDetail="5" limitTurnSpeed="5.50" xmlns:xsi="http://www.w3.org/2001/XMLSchema-instance" xsi:noNamespaceSchemaLocation="http://sumo.dlr.de/xsd/net_file.xsd">

    <location netOffset="882.72,1528.66" convBoundary="0.00,0.00,1795.49,2428.02" origBoundary="-882.72,-1528.66,912.78,899.36" projParameter="!"/>

    <edge id=":1_0" function="internal">
        <lane id=":1_0_0" index="0" speed="5.98" length="9.08" width="3.20" shape="874.99,1545.60 874.58,1543.03 873.45,1541.46 871.60,1540.87 869.03,1541.29"/>
    </edge>
    <edge id=":1_1" function="internal">
        <lane id=":1_1_0" index="0" speed="13.89" length="28.69" width="3.20" shape="874.99,1545.60 874.87,1537.30 874.58,1531.60 873.73,1525.98 871.91,1517.89"/>
        <lane id=":1_1_1" index="1" speed="13.89" length="28.69" width="3.20" shape="878.18,1545.55 878.06,1537.04 877.77,1531.20 876.89,1525.44 875.02,1517.15"/>
        <lane id=":1_1_2" index="2" speed="13.89" length="28.69" width="3.20" shape="881.38,1545.50 881.26,1536.78 880.95,1530.80 880.05,1524.89 878.13,1516.40"/>
    </edge>
    <edge id=":1_4" function="internal">
        <lane id=":1_4_0" index="0" speed="10.70" length="5.86" width="3.20" shape="881.38,1545.50 882.01,1539.68"/>
    </edge>
    <edge id=":1_20" function="internal">
        <lane id=":1_20_0" index="0" speed="10.70" length="21.44" width="3.20" shape="882.01,1539.68 882.24,1537.44 885.12,1531.77 890.00,1528.49 896.90,1527.60"/>
    </edge>
    <edge id=":1_5" function="internal">
        <lane id=":1_5_0" index="0" speed="7.06" length="11.26" width="3.20" shape="896.54,1537.19 894.06,1537.62 892.31,1539.12 891.28,1541.70 890.98,1545.35"/>
    </edge>
    <edge id=":1_6" function="internal">
        <lane id=":1_6_0" index="0" speed="13.89" length="29.14" width="3.20" shape="896.54,1537.19 888.24,1537.03 882.55,1537.49 876.97,1538.83 869.03,1541.29"/>
        <lane id=":1_6_1" index="1" speed="13.89" length="29.14" width="3.20" shape="896.66,1533.99 888.04,1533.82 882.13,1534.30 876.34,1535.68 868.08,1538.23"/>
        <lane id=":1_6_2" index="2" speed="13.89" length="29.14" width="3.20" shape="896.78,1530.79 887.84,1530.61 881.71,1531.11 875.70,1532.54 867.13,1535.17"/>
    </edge>
    <edge id=":1_9" function="internal">
        <lane id=":1_9_0" index="0" speed="11.83" length="25.53" width="3.20" shape="896.78,1530.79 889.86,1529.68 884.45,1526.90 880.54,1522.48 878.13,1516.40"/>
    </edge>
    <edge id=":1_10" function="internal">
        <lane id=":1_10_0" index="0" speed="8.56" length="12.96" width="3.20" shape="887.46,1514.16 888.68,1517.12 890.69,1519.29 893.52,1520.65 897.14,1521.20"/>
    </edge>
    <edge id=":1_11" function="internal">
        <lane id=":1_11_0" index="0" speed="13.89" length="30.80" width="3.20" shape="887.46,1514.16 889.46,1523.08 890.45,1529.60 890.83,1536.20 890.98,1545.35"/>
        <lane id=":1_11_1" index="1" speed="13.89" length="30.80" width="3.20" shape="884.35,1514.90 886.33,1523.71 887.29,1530.00 887.64,1536.36 887.78,1545.40"/>
        <lane id=":1_11_2" index="2" speed="13.89" length="30.80" width="3.20" shape="881.24,1515.65 883.21,1524.35 884.14,1530.40 884.45,1536.52 884.58,1545.45"/>
    </edge>
    <edge id=":1_14" function="internal">
        <lane id=":1_14_0" index="0" speed="11.12" length="4.39" width="3.20" shape="881.24,1515.65 881.50,1520.04"/>
    </edge>
    <edge id=":1_21" function="internal">
        <lane id=":1_21_0" index="0" speed="11.12" length="22.60" width="3.20" shape="881.50,1520.04 881.63,1522.16 879.41,1527.58 874.57,1531.92 867.13,1535.17"/>
    </edge>
    <edge id=":1_15" function="internal">
        <lane id=":1_15_0" index="0" speed="7.67" length="12.31" width="3.20" shape="864.29,1526.00 868.10,1524.46 870.64,1522.59 871.91,1520.41 871.91,1517.89"/>
    </edge>
    <edge id=":1_16" function="internal">
        <lane id=":1_16_0" index="0" speed="13.89" length="32.38" width="3.20" shape="864.29,1526.00 873.36,1523.30 880.47,1521.72 887.70,1521.09 897.14,1521.20"/>
        <lane id=":1_16_1" index="1" speed="13.89" length="32.38" width="3.20" shape="865.23,1529.06 874.14,1526.38 880.88,1524.85 887.75,1524.26 897.02,1524.40"/>
        <lane id=":1_16_2" index="2" speed="13.89" length="32.38" width="3.20" shape="866.18,1532.12 874.92,1529.45 881.29,1527.98 887.79,1527.44 896.90,1527.60"/>
    </edge>
    <edge id=":1_19" function="internal">
        <lane id=":1_19_0" index="0" speed="10.06" length="28.06" width="3.20" shape="866.18,1532.12 874.12,1530.84 879.83,1532.64 883.32,1537.51 884.58,1545.45"/>
    </edge>
    <edge id=":10_0" function="internal">
        <lane id=":10_0_0" index="0" speed="5.61" length="9.32" width="3.20" shape="719.71,1602.33 718.48,1599.78 716.99,1598.73 715.23,1599.21 713.21,1601.20"/>
    </edge>
    <edge id=":10_1" function="internal">
        <lane id=":10_1_0" index="0" speed="13.89" length="32.04" width="3.20" shape="719.71,1602.33 717.06,1593.73 714.90,1587.78 711.46,1582.70 704.98,1576.74"/>
        <lane id=":10_1_1" index="1" speed="13.89" length="32.04" width="3.20" shape="722.75,1601.33 719.94,1592.43 717.47,1586.01 713.70,1580.49 707.00,1574.26"/>
        <lane id=":10_1_2" index="2" speed="13.89" length="32.04" width="3.20" shape="725.79,1600.33 722.82,1591.19 720.00,1584.27 715.89,1578.24 709.03,1571.78"/>
    </edge>
    <edge id=":10_4" function="internal">
        <lane id=":10_4_0" index="0" speed="11.62" length="7.30" width="3.20" shape="725.79,1600.33 724.15,1593.21"/>
    </edge>
    <edge id=":10_20" function="internal">
        <lane id=":10_20_0" index="0" speed="11.62" length="24.22" width="3.20" shape="724.15,1593.21 723.47,1590.26 723.92,1582.42 727.14,1576.80 733.11,1573.41"/>
    </edge>
    <edge id=":10_5" function="internal">
        <lane id=":10_5_0" index="0" speed="8.44" length="16.13" width="3.20" shape="735.96,1582.58 733.88,1584.12 733.01,1587.10 733.35,1591.49 734.90,1597.31"/>
    </edge>
    <edge id=":10_6" function="internal">
        <lane id=":10_6_0" index="0" speed="13.89" length="32.12" width="3.20" shape="735.96,1582.58 727.76,1585.70 722.72,1589.18 718.61,1594.02 713.21,1601.20"/>
        <lane id=":10_6_1" index="1" speed="13.89" length="32.12" width="3.20" shape="735.01,1579.52 726.47,1582.82 720.95,1586.61 716.38,1591.79 710.69,1599.23"/>
        <lane id=":10_6_2" index="2" speed="13.89" length="32.12" width="3.20" shape="734.06,1576.46 725.27,1579.93 719.22,1584.10 714.11,1589.65 708.17,1597.25"/>
    </edge>
    <edge id=":10_9" function="internal">
        <lane id=":10_9_0" index="0" speed="13.89" length="26.58" width="3.20" shape="734.06,1576.46 727.26,1577.80 720.81,1577.46 714.74,1575.46 709.03,1571.78"/>
    </edge>
    <edge id=":10_10" function="internal">
        <lane id=":10_10_0" index="0" speed="11.59" length="17.10" width="3.20" shape="715.10,1564.34 718.75,1566.69 722.66,1567.96 726.81,1568.17 731.22,1567.30"/>
    </edge>
    <edge id=":10_11" function="internal">
        <lane id=":10_11_0" index="0" speed="13.89" length="37.32" width="3.20" shape="715.10,1564.34 722.43,1571.49 727.59,1579.04 731.46,1587.49 734.90,1597.31"/>
        <lane id=":10_11_1" index="1" speed="13.89" length="37.32" width="3.20" shape="713.08,1566.82 720.25,1573.74 725.06,1580.79 728.58,1588.72 731.86,1598.32"/>
        <lane id=":10_11_2" index="2" speed="13.89" length="37.32" width="3.20" shape="711.05,1569.30 718.07,1575.99 722.53,1582.53 725.70,1589.96 728.82,1599.32"/>
    </edge>
    <edge id=":10_14" function="internal">
        <lane id=":10_14_0" index="0" speed="11.78" length="4.75" width="3.20" shape="711.05,1569.30 713.99,1573.03"/>
    </edge>
    <edge id=":10_21" function="internal">
        <lane id=":10_21_0" index="0" speed="11.78" length="26.73" width="3.20" shape="713.99,1573.03 715.22,1574.60 716.13,1581.02 713.78,1588.57 708.17,1597.25"/>
    </edge>
    <edge id=":10_15" function="internal">
        <lane id=":10_15_0" index="0" speed="8.65" length="16.50" width="3.20" shape="700.62,1591.33 704.14,1586.26 706.05,1582.14 706.33,1578.97 704.98,1576.74"/>
    </edge>
    <edge id=":10_16" function="internal">
        <lane id=":10_16_0" index="0" speed="13.89" length="37.74" width="3.20" shape="700.62,1591.33 707.29,1583.22 714.01,1576.55 721.69,1571.27 731.22,1567.30"/>
        <lane id=":10_16_1" index="1" speed="13.89" length="37.74" width="3.20" shape="703.13,1593.30 709.56,1585.36 715.75,1579.07 722.89,1574.15 732.17,1570.35"/>
        <lane id=":10_16_2" index="2" speed="13.89" length="37.74" width="3.20" shape="705.65,1595.28 711.83,1587.50 717.48,1581.58 724.08,1577.04 733.11,1573.41"/>
    </edge>
    <edge id=":10_19" function="internal">
        <lane id=":10_19_0" index="0" speed="9.61" length="30.30" width="3.20" shape="705.65,1595.28 712.10,1589.83 718.72,1588.79 724.61,1592.01 728.82,1599.32"/>
    </edge>
    <edge id=":1004_0" function="internal">
        <lane id=":1004_0_0" index="0" speed="6.60" length="7.16" width="3.20" shape="747.85,1837.86 745.98,1837.55 744.31,1837.82 742.85,1838.66 741.59,1840.07"/>
    </edge>
    <edge id=":1004_1" function="internal">
        <lane id=":1004_1_0" index="0" speed="13.89" length="22.33" width="3.20" shape="747.85,1837.86 741.00,1835.62 736.50,1833.30 732.86,1829.81 728.60,1824.02"/>
        <lane id=":1004_1_1" index="1" speed="13.89" length="22.33" width="3.20" shape="748.78,1834.80 742.54,1832.76 738.43,1830.65 735.11,1827.47 731.23,1822.20"/>
        <lane id=":1004_1_2" index="2" speed="13.89" length="22.33" width="3.20" shape="749.71,1831.74 744.08,1829.89 740.37,1828.00 737.37,1825.13 733.86,1820.37"/>
    </edge>
    <edge id=":1004_4" function="internal">
        <lane id=":1004_4_0" index="0" speed="13.70" length="15.80" width="3.20" shape="741.76,1814.91 744.13,1818.12 746.17,1820.05 748.69,1821.31 752.50,1822.55"/>
        <lane id=":1004_4_1" index="1" speed="13.89" length="15.80" width="3.20" shape="739.13,1816.73 741.88,1820.46 744.23,1822.70 747.15,1824.17 751.57,1825.61"/>
        <lane id=":1004_4_2" index="2" speed="13.89" length="15.80" width="3.20" shape="736.49,1818.55 739.62,1822.80 742.30,1825.35 745.61,1827.03 750.64,1828.68"/>
    </edge>
    <edge id=":1004_7" function="internal">
        <lane id=":1004_7_0" index="0" speed="11.32" length="5.86" width="3.20" shape="736.49,1818.55 739.38,1823.66"/>
        <lane id=":1004_7_1" index="1" speed="10.79" length="4.44" width="3.20" shape="736.49,1818.55 738.52,1822.50"/>
    </edge>
    <edge id=":1004_12" function="internal">
        <lane id=":1004_12_0" index="0" speed="11.32" length="15.31" width="3.20" shape="739.38,1823.66 739.65,1824.12 741.11,1829.26 740.87,1833.98 738.94,1838.27"/>
    </edge>
    <edge id=":1004_13" function="internal">
        <lane id=":1004_13_0" index="0" speed="10.79" length="14.73" width="3.20" shape="738.52,1822.50 738.75,1822.95 739.47,1827.40 738.65,1831.91 736.30,1836.47"/>
    </edge>
    <edge id=":1004_9" function="internal">
        <lane id=":1004_9_0" index="0" speed="6.97" length="7.55" width="3.20" shape="728.36,1831.07 729.33,1829.23 729.69,1827.44 729.45,1825.70 728.60,1824.02"/>
    </edge>
    <edge id=":1004_10" function="internal">
        <lane id=":1004_10_0" index="0" speed="11.53" length="23.54" width="3.20" shape="731.00,1832.87 735.14,1828.22 739.95,1825.46 745.43,1824.59 751.57,1825.61"/>
        <lane id=":1004_10_1" index="1" speed="10.52" length="19.44" width="3.20" shape="733.65,1834.67 737.07,1830.83 741.04,1828.55 745.56,1827.83 750.64,1828.68"/>
    </edge>
    <edge id=":1010_0" function="internal">
        <lane id=":1010_0_0" index="0" speed="13.89" length="45.80" width="3.20" shape="782.80,2079.57 777.05,2088.62 769.01,2095.62 758.68,2100.60 746.07,2103.53"/>
        <lane id=":1010_0_1" index="1" speed="13.89" length="42.58" width="3.20" shape="779.89,2078.24 774.57,2086.57 767.08,2093.04 757.44,2097.63 745.63,2100.36"/>
    </edge>
    <edge id=":1010_2" function="internal">
        <lane id=":1010_2_0" index="0" speed="11.13" length="11.24" width="3.20" shape="776.98,2076.91 771.26,2085.04 770.06,2085.53"/>
        <lane id=":1010_2_1" index="1" speed="10.68" length="8.88" width="3.20" shape="776.98,2076.91 771.71,2084.06"/>
    </edge>
    <edge id=":1010_11" function="internal">
        <lane id=":1010_11_0" index="0" speed="11.13" length="24.83" width="3.20" shape="770.06,2085.53 764.33,2087.84 756.52,2085.77 748.14,2079.32"/>
    </edge>
    <edge id=":1010_12" function="internal">
        <lane id=":1010_12_0" index="0" speed="10.68" length="24.25" width="3.20" shape="771.71,2084.06 765.32,2085.91 758.11,2083.30 750.39,2077.05"/>
    </edge>
    <edge id=":1010_4" function="internal">
        <lane id=":1010_4_0" index="0" speed="7.04" length="13.62" width="3.20" shape="757.15,2070.23 761.02,2073.55 764.17,2075.10 766.57,2074.89 768.25,2072.91"/>
    </edge>
    <edge id=":1010_5" function="internal">
        <lane id=":1010_5_0" index="0" speed="10.55" length="38.14" width="3.20" shape="754.90,2072.50 760.61,2081.38 760.67,2089.89 755.52,2096.67 745.63,2100.36"/>
        <lane id=":1010_5_1" index="1" speed="9.51" length="30.69" width="3.20" shape="752.64,2074.78 757.24,2081.92 757.29,2088.77 753.15,2094.22 745.19,2097.19"/>
    </edge>
    <edge id=":1010_7" function="internal">
        <lane id=":1010_7_0" index="0" speed="5.55" length="9.42" width="3.20" shape="743.86,2087.68 746.68,2086.93 747.95,2085.66 747.69,2083.88 745.89,2081.60"/>
    </edge>
    <edge id=":1010_8" function="internal">
        <lane id=":1010_8_0" index="0" speed="13.89" length="29.73" width="3.20" shape="743.86,2087.68 752.45,2085.78 759.37,2082.68 764.64,2078.39 768.25,2072.91"/>
        <lane id=":1010_8_1" index="1" speed="13.89" length="32.94" width="3.20" shape="744.30,2090.85 753.69,2088.74 761.30,2085.27 767.12,2080.44 771.16,2074.24"/>
        <lane id=":1010_8_2" index="2" speed="13.89" length="36.16" width="3.20" shape="744.74,2094.02 754.94,2091.70 763.23,2087.86 769.60,2082.48 774.07,2075.58"/>
    </edge>
    <edge id=":1026_0" function="internal">
        <lane id=":1026_0_0" index="0" speed="6.51" length="8.91" width="3.20" shape="588.15,1735.99 587.46,1733.66 586.19,1732.09 584.34,1731.29 581.90,1731.26"/>
    </edge>
    <edge id=":1026_1" function="internal">
        <lane id=":1026_1_0" index="0" speed="13.89" length="26.11" width="3.20" shape="588.15,1735.99 587.01,1728.12 586.48,1722.69 586.49,1717.24 586.99,1709.31"/>
        <lane id=":1026_1_1" index="1" speed="13.89" length="26.11" width="3.20" shape="591.32,1735.53 590.21,1727.86 589.69,1722.57 589.70,1717.26 590.18,1709.54"/>
        <lane id=":1026_1_2" index="2" speed="13.89" length="26.11" width="3.20" shape="594.48,1735.06 593.40,1727.60 592.89,1722.45 592.90,1717.29 593.38,1709.77"/>
    </edge>
    <edge id=":1026_4" function="internal">
        <lane id=":1026_4_0" index="0" speed="13.89" length="24.01" width="3.20" shape="602.95,1710.46 602.52,1717.36 602.52,1722.10 602.99,1726.82 603.98,1733.66"/>
        <lane id=":1026_4_1" index="1" speed="13.89" length="24.01" width="3.20" shape="599.76,1710.23 599.31,1717.33 599.31,1722.22 599.79,1727.08 600.82,1734.13"/>
        <lane id=":1026_4_2" index="2" speed="13.89" length="24.01" width="3.20" shape="596.57,1710.00 596.11,1717.31 596.10,1722.33 596.60,1727.34 597.65,1734.59"/>
    </edge>
    <edge id=":1026_7" function="internal">
        <lane id=":1026_7_0" index="0" speed="11.50" length="5.62" width="3.20" shape="596.57,1710.00 595.51,1715.52"/>
        <lane id=":1026_7_1" index="1" speed="11.01" length="4.46" width="3.20" shape="596.57,1710.00 595.58,1714.35"/>
    </edge>
    <edge id=":1026_12" function="internal">
        <lane id=":1026_12_0" index="0" speed="11.50" length="20.17" width="3.20" shape="595.51,1715.52 595.18,1717.25 592.21,1722.67 587.65,1726.29 581.50,1728.08"/>
    </edge>
    <edge id=":1026_13" function="internal">
        <lane id=":1026_13_0" index="0" speed="11.01" length="19.10" width="3.20" shape="595.58,1714.35 595.25,1715.83 592.23,1720.25 587.51,1723.28 581.09,1724.91"/>
    </edge>
    <edge id=":1026_9" function="internal">
        <lane id=":1026_9_0" index="0" speed="7.43" length="10.24" width="3.20" shape="579.87,1715.39 582.85,1714.68 585.02,1713.44 586.41,1711.64 586.99,1709.31"/>
    </edge>
    <edge id=":1026_10" function="internal">
        <lane id=":1026_10_0" index="0" speed="11.37" length="29.26" width="3.20" shape="580.28,1718.56 588.28,1718.68 594.36,1721.31 598.54,1726.46 600.82,1734.13"/>
        <lane id=":1026_10_1" index="1" speed="10.37" length="24.17" width="3.20" shape="580.69,1721.73 587.29,1721.83 592.32,1724.00 595.77,1728.26 597.65,1734.59"/>
    </edge>
    <edge id=":1092_0" function="internal">
        <lane id=":1092_0_0" index="0" speed="13.89" length="39.69" width="3.20" shape="646.85,1983.48 640.25,1975.25 635.84,1966.35 632.78,1956.70 630.20,1946.20"/>
        <lane id=":1092_0_1" index="1" speed="13.89" length="39.69" width="3.20" shape="649.10,1981.20 642.63,1973.22 638.52,1964.84 635.76,1955.71 633.31,1945.46"/>
        <lane id=":1092_0_2" index="2" speed="13.89" length="39.69" width="3.20" shape="651.36,1978.93 645.02,1971.18 641.20,1963.33 638.73,1954.73 636.43,1944.71"/>
    </edge>
    <edge id=":1092_3" function="internal">
        <lane id=":1092_3_0" index="0" speed="13.55" length="6.15" width="3.20" shape="651.36,1978.93 648.00,1973.78"/>
        <lane id=":1092_3_1" index="1" speed="13.20" length="4.24" width="3.20" shape="651.36,1978.93 649.23,1975.26"/>
    </edge>
    <edge id=":1092_12" function="internal">
        <lane id=":1092_12_0" index="0" speed="13.55" length="30.53" width="3.20" shape="648.00,1973.78 647.14,1972.46 646.25,1964.71 648.69,1955.69 654.47,1945.39"/>
    </edge>
    <edge id=":1092_13" function="internal">
        <lane id=":1092_13_0" index="0" speed="13.20" length="30.50" width="3.20" shape="649.23,1975.26 648.17,1973.43 648.07,1966.31 651.05,1957.56 657.11,1947.19"/>
    </edge>
    <edge id=":1092_5" function="internal">
        <lane id=":1092_5_0" index="0" speed="10.50" length="21.65" width="3.20" shape="665.05,1952.59 660.60,1959.72 657.95,1965.35 657.13,1969.48 658.11,1972.11"/>
    </edge>
    <edge id=":1092_6" function="internal">
        <lane id=":1092_6_0" index="0" speed="10.43" length="38.84" width="3.20" shape="662.41,1950.79 654.50,1957.94 645.83,1959.21 638.17,1954.94 633.31,1945.46"/>
        <lane id=":1092_6_1" index="1" speed="9.39" length="31.16" width="3.20" shape="659.76,1948.99 653.42,1954.72 646.46,1955.75 640.32,1952.32 636.43,1944.71"/>
    </edge>
    <edge id=":1092_8" function="internal">
        <lane id=":1092_8_0" index="0" speed="5.50" length="9.61" width="3.20" shape="645.76,1942.48 646.81,1945.33 648.17,1946.46 649.84,1945.88 651.82,1943.59"/>
    </edge>
    <edge id=":1092_9" function="internal">
        <lane id=":1092_9_0" index="0" speed="13.89" length="34.53" width="3.20" shape="645.76,1942.48 647.67,1951.78 649.25,1958.81 652.18,1965.08 658.11,1972.11"/>
        <lane id=":1092_9_1" index="1" speed="13.89" length="34.53" width="3.20" shape="642.65,1943.23 644.69,1952.76 646.57,1960.32 649.79,1967.11 655.86,1974.38"/>
        <lane id=":1092_9_2" index="2" speed="13.89" length="34.53" width="3.20" shape="639.54,1943.97 641.71,1953.75 643.89,1961.83 647.41,1969.15 653.61,1976.66"/>
    </edge>
    <edge id=":115_0" function="internal">
        <lane id=":115_0_0" index="0" speed="5.67" length="9.24" width="3.20" shape="1054.02,1234.13 1052.47,1231.84 1050.82,1231.00 1049.08,1231.62 1047.25,1233.70"/>
    </edge>
    <edge id=":115_1" function="internal">
        <lane id=":115_1_0" index="0" speed="13.89" length="28.91" width="3.20" shape="1054.02,1234.13 1049.89,1227.39 1044.95,1222.13 1039.22,1218.36 1032.68,1216.08"/>
        <lane id=":115_1_1" index="1" speed="13.89" length="31.76" width="3.20" shape="1056.89,1232.70 1052.36,1225.34 1046.93,1219.60 1040.60,1215.47 1033.37,1212.96"/>
        <lane id=":115_1_2" index="2" speed="13.89" length="34.61" width="3.20" shape="1059.75,1231.27 1054.83,1223.29 1048.91,1217.06 1041.99,1212.57 1034.06,1209.83"/>
    </edge>
    <edge id=":115_4" function="internal">
        <lane id=":115_4_0" index="0" speed="13.89" length="43.16" width="3.20" shape="1036.14,1200.46 1046.15,1203.89 1054.85,1209.45 1062.25,1217.16 1068.34,1226.99"/>
        <lane id=":115_4_1" index="1" speed="13.89" length="40.31" width="3.20" shape="1035.45,1203.58 1044.76,1206.78 1052.87,1211.99 1059.78,1219.20 1065.48,1228.42"/>
    </edge>
    <edge id=":115_6" function="internal">
        <lane id=":115_6_0" index="0" speed="10.73" length="10.44" width="3.20" shape="1034.76,1206.71 1043.66,1210.26 1044.21,1210.92"/>
        <lane id=":115_6_1" index="1" speed="10.23" length="8.47" width="3.20" shape="1034.76,1206.71 1042.55,1210.02"/>
    </edge>
    <edge id=":115_11" function="internal">
        <lane id=":115_11_0" index="0" speed="10.73" length="23.39" width="3.20" shape="1044.21,1210.92 1048.31,1215.85 1048.64,1223.17 1044.59,1231.93"/>
    </edge>
    <edge id=":115_12" function="internal">
        <lane id=":115_12_0" index="0" speed="10.23" length="22.17" width="3.20" shape="1042.55,1210.02 1046.17,1215.29 1045.87,1222.12 1041.93,1230.15"/>
    </edge>
    <edge id=":115_8" function="internal">
        <lane id=":115_8_0" index="0" speed="6.37" length="11.04" width="3.20" shape="1033.95,1224.82 1035.71,1221.51 1036.09,1218.95 1035.08,1217.14 1032.68,1216.08"/>
    </edge>
    <edge id=":115_9" function="internal">
        <lane id=":115_9_0" index="0" speed="10.74" length="36.92" width="3.20" shape="1036.61,1226.60 1043.87,1219.22 1051.70,1217.10 1059.20,1220.19 1065.48,1228.42"/>
        <lane id=":115_9_1" index="1" speed="9.71" length="29.86" width="3.20" shape="1039.27,1228.38 1045.15,1222.41 1051.47,1220.70 1057.53,1223.19 1062.61,1229.85"/>
    </edge>
    <edge id=":118_0" function="internal">
        <lane id=":118_0_0" index="0" speed="13.89" length="35.78" width="3.20" shape="665.76,1210.09 656.17,1212.76 647.76,1213.74 639.20,1213.61 629.16,1212.93"/>
        <lane id=":118_0_1" index="1" speed="13.89" length="35.78" width="3.20" shape="664.70,1207.07 655.31,1209.71 647.34,1210.63 639.22,1210.44 629.37,1209.74"/>
        <lane id=":118_0_2" index="2" speed="13.89" length="35.78" width="3.20" shape="663.65,1204.05 654.46,1206.67 646.92,1207.53 639.23,1207.27 629.59,1206.55"/>
    </edge>
    <edge id=":118_3" function="internal">
        <lane id=":118_3_0" index="0" speed="13.08" length="5.40" width="3.20" shape="663.65,1204.05 658.31,1204.86"/>
        <lane id=":118_3_1" index="1" speed="12.70" length="3.98" width="3.20" shape="663.65,1204.05 659.69,1204.45"/>
    </edge>
    <edge id=":118_12" function="internal">
        <lane id=":118_12_0" index="0" speed="13.08" length="28.18" width="3.20" shape="658.31,1204.86 656.14,1205.18 649.09,1203.18 642.51,1198.03 636.40,1189.74"/>
    </edge>
    <edge id=":118_13" function="internal">
        <lane id=":118_13_0" index="0" speed="12.70" length="27.61" width="3.20" shape="659.69,1204.45 657.47,1204.68 651.32,1202.23 645.22,1196.70 639.15,1188.10"/>
    </edge>
    <edge id=":118_5" function="internal">
        <lane id=":118_5_0" index="0" speed="9.83" length="18.56" width="3.20" shape="647.39,1183.19 651.24,1189.00 654.71,1192.91 657.79,1194.90 660.49,1194.99"/>
    </edge>
    <edge id=":118_6" function="internal">
        <lane id=":118_6_0" index="0" speed="10.62" length="37.73" width="3.20" shape="644.65,1184.83 648.05,1194.75 646.20,1202.92 639.76,1208.26 629.37,1209.74"/>
        <lane id=":118_6_1" index="1" speed="9.58" length="30.41" width="3.20" shape="641.90,1186.47 644.64,1194.47 643.15,1201.05 637.96,1205.36 629.59,1206.55"/>
    </edge>
    <edge id=":118_8" function="internal">
        <lane id=":118_8_0" index="0" speed="5.59" length="9.34" width="3.20" shape="630.23,1196.97 633.08,1196.80 634.60,1195.81 634.79,1194.00 633.65,1191.38"/>
    </edge>
    <edge id=":118_9" function="internal">
        <lane id=":118_9_0" index="0" speed="13.89" length="31.97" width="3.20" shape="630.23,1196.97 639.28,1197.78 645.66,1198.21 651.89,1197.52 660.49,1194.99"/>
        <lane id=":118_9_1" index="1" speed="13.89" length="31.97" width="3.20" shape="630.02,1200.16 639.26,1200.94 646.08,1201.31 652.74,1200.57 661.54,1198.01"/>
        <lane id=":118_9_2" index="2" speed="13.89" length="31.97" width="3.20" shape="629.80,1203.35 639.25,1204.11 646.50,1204.42 653.60,1203.62 662.59,1201.03"/>
    </edge>
    <edge id=":1198_0" function="internal">
        <lane id=":1198_0_0" index="0" speed="13.89" length="1.27" width="3.20" shape="601.62,1826.75 601.51,1826.31 601.45,1826.00 601.39,1825.68 601.32,1825.23"/>
        <lane id=":1198_0_1" index="1" speed="13.89" length="1.27" width="3.20" shape="604.73,1826.01 604.64,1825.64 604.59,1825.39 604.55,1825.13 604.49,1824.76"/>
        <lane id=":1198_0_2" index="2" speed="13.89" length="1.27" width="3.20" shape="607.84,1825.27 607.77,1824.98 607.73,1824.78 607.70,1824.58 607.66,1824.29"/>
    </edge>
    <edge id=":1198_3" function="internal">
        <lane id=":1198_3_0" index="0" speed="13.89" length="0.42" width="3.20" shape="617.15,1822.89 617.16,1822.93 617.16,1822.96 617.17,1822.99 617.18,1823.03"/>
        <lane id=":1198_3_1" index="1" speed="13.89" length="0.42" width="3.20" shape="613.99,1823.36 614.01,1823.48 614.02,1823.57 614.04,1823.65 614.07,1823.78"/>
        <lane id=":1198_3_2" index="2" speed="13.89" length="0.42" width="3.20" shape="610.82,1823.83 610.85,1824.03 610.88,1824.18 610.91,1824.32 610.95,1824.52"/>
    </edge>
    <edge id=":12_0" function="internal">
        <lane id=":12_0_0" index="0" speed="13.89" length="40.48" width="3.20" shape="963.49,1373.96 956.58,1366.07 949.07,1360.02 940.61,1355.18 930.90,1350.94"/>
    </edge>
    <edge id=":12_1" function="internal">
        <lane id=":12_1_0" index="0" speed="13.89" length="47.00" width="3.20" shape="963.49,1373.96 956.99,1364.26 951.00,1353.60 945.68,1342.57 941.18,1331.76"/>
        <lane id=":12_1_1" index="1" speed="13.89" length="47.00" width="3.20" shape="966.06,1372.06 959.62,1362.47 953.78,1352.07 948.60,1341.30 944.17,1330.61"/>
        <lane id=":12_1_2" index="2" speed="13.89" length="47.00" width="3.20" shape="968.63,1370.15 962.26,1360.68 956.56,1350.54 951.52,1340.03 947.16,1329.46"/>
    </edge>
    <edge id=":12_4" function="internal">
        <lane id=":12_4_0" index="0" speed="13.89" length="8.05" width="3.20" shape="968.63,1370.15 964.72,1363.10"/>
    </edge>
    <edge id=":12_5" function="internal">
        <lane id=":12_5_0" index="0" speed="10.37" length="3.82" width="3.20" shape="968.63,1370.15 967.12,1366.64"/>
    </edge>
    <edge id=":12_29" function="internal">
        <lane id=":12_29_0" index="0" speed="13.89" length="35.96" width="3.20" shape="964.72,1363.10 963.10,1360.18 961.18,1350.03 962.87,1339.68 968.17,1329.14"/>
    </edge>
    <edge id=":12_30" function="internal">
        <lane id=":12_30_0" index="0" speed="10.37" length="29.99" width="3.20" shape="967.12,1366.64 965.11,1361.95 967.05,1355.33 973.38,1350.52 983.04,1347.79"/>
    </edge>
    <edge id=":12_6" function="internal">
        <lane id=":12_6_0" index="0" speed="6.74" length="13.46" width="3.20" shape="984.44,1357.29 979.40,1358.40 976.37,1359.96 975.35,1361.97 976.33,1364.42"/>
    </edge>
    <edge id=":12_7" function="internal">
        <lane id=":12_7_0" index="0" speed="13.89" length="52.99" width="3.20" shape="984.44,1357.29 971.77,1358.00 957.33,1357.01 943.06,1354.58 930.90,1350.94"/>
        <lane id=":12_7_1" index="1" speed="13.89" length="52.99" width="3.20" shape="983.97,1354.13 971.56,1354.86 957.69,1353.94 943.98,1351.57 932.08,1347.97"/>
        <lane id=":12_7_2" index="2" speed="13.89" length="52.99" width="3.20" shape="983.97,1354.13 971.75,1354.40 958.28,1352.45 944.98,1349.06 933.27,1344.99"/>
    </edge>
    <edge id=":12_10" function="internal">
        <lane id=":12_10_0" index="0" speed="13.89" length="50.53" width="3.20" shape="983.97,1354.13 970.56,1354.26 959.46,1350.38 950.66,1342.50 944.17,1330.61"/>
        <lane id=":12_10_1" index="1" speed="13.89" length="46.16" width="3.20" shape="983.51,1350.96 971.26,1351.08 961.12,1347.53 953.09,1340.33 947.16,1329.46"/>
    </edge>
    <edge id=":12_12" function="internal">
        <lane id=":12_12_0" index="0" speed="9.39" length="31.13" width="3.20" shape="983.51,1350.96 975.00,1350.17 969.54,1345.76 967.89,1338.94 970.83,1330.91"/>
    </edge>
    <edge id=":12_13" function="internal">
        <lane id=":12_13_0" index="0" speed="5.50" length="9.60" width="3.20" shape="978.81,1336.24 977.44,1338.94 977.53,1340.71 979.09,1341.55 982.11,1341.46"/>
    </edge>
    <edge id=":12_14" function="internal">
        <lane id=":12_14_0" index="0" speed="13.75" length="32.42" width="3.20" shape="978.81,1336.24 973.64,1345.41 971.07,1353.48 971.11,1360.45 973.77,1366.33"/>
        <lane id=":12_14_1" index="1" speed="13.89" length="36.35" width="3.20" shape="976.15,1334.47 970.51,1344.57 967.80,1353.56 968.03,1361.45 971.20,1368.24"/>
    </edge>
    <edge id=":12_16" function="internal">