<configuration>
    <input>
		<additional-files value="loopDetectors.add.xml,busStop.add.xml"/>
		<net-file value="SimpleRandom.net.xml"/>
        <route-files value="processed_trips.xml"/>
    </input>
</configuration>

