<?xml version="1.0" encoding="UTF-8"?>

<!-- generated on 2023-08-05 15:55:54 by Eclipse SUMO activitygen Version 1.15.0
<configuration xmlns:xsi="http://www.w3.org/2001/XMLSchema-instance" xsi:noNamespaceSchemaLocation="http://sumo.dlr.de/xsd/activitygenConfiguration.xsd">

    <input>
        <net-file value="SimpleRandom.net.xml"/>
        <stat-file value="activitygen.stat.xml"/>
    </input>

    <output>
        <output-file value="test_trips.rou.xml"/>
    </output>

    <random_number>
        <random value="true"/>
    </random_number>

</configuration>
-->

<routes xmlns:xsi="http://www.w3.org/2001/XMLSchema-instance" xsi:noNamespaceSchemaLocation="http://sumo.dlr.de/xsd/routes_file.xsd">
    <vType id="default" vClass="passenger" color="red"/>
    <vType id="random" vClass="passenger" color="blue"/>
    <vType id="bus" vClass="bus" color="green"/>

    <trip id="bl107b1:1" type="bus" depart="21600.00" departPos="9.00" arrivalPos="5.00" arrivalSpeed="0.00" from="-1201" via="-1027 -698 -11 9 19 123 338 505 597" to="686"/>
    
</routes>
