<?xml version="1.0" encoding="UTF-8"?>

<!-- generated on 2023-08-07 12:13:14 by Eclipse SUMO activitygen Version 1.15.0
<configuration xmlns:xsi="http://www.w3.org/2001/XMLSchema-instance" xsi:noNamespaceSchemaLocation="http://sumo.dlr.de/xsd/activitygenConfiguration.xsd">

    <input>
        <net-file value="SimpleRandom.net.xml"/>
        <stat-file value="activitygen.stat.xml"/>
    </input>

    <output>
        <output-file value="test_trips.rou.xml"/>
    </output>

    <random_number>
        <random value="true"/>
    </random_number>

</configuration>
-->

<routes xmlns:xsi="http://www.w3.org/2001/XMLSchema-instance" xsi:noNamespaceSchemaLocation="http://sumo.dlr.de/xsd/routes_file.xsd">
    <vType id="default" vClass="passenger" color="red"/>
    <vType id="random" vClass="passenger" color="blue"/>
    <vType id="bus" vClass="bus" color="green"/>

    <trip id="randUni828:1" type="random" depart="20.00" departPos="32.45" arrivalPos="69.06" arrivalSpeed="0.00" from="570" to="348"/>
    <trip id="randUni1043:1" type="random" depart="220.00" departPos="93.08" arrivalPos="4.99" arrivalSpeed="0.00" from="-1882" to="1029"/>
    <trip id="randUni1086:1" type="random" depart="303.00" departPos="53.16" arrivalPos="136.50" arrivalSpeed="0.00" from="1493" to="7"/>
    <trip id="randUni793:1" type="random" depart="664.00" departPos="46.81" arrivalPos="131.53" arrivalSpeed="0.00" from="-1883" to="-25"/>
    <trip id="randUni9:1" type="random" depart="667.00" departPos="65.10" arrivalPos="40.42" arrivalSpeed="0.00" from="1425" to="-1429"/>
    <trip id="randUni205:1" type="random" depart="1007.00" departPos="26.37" arrivalPos="13.35" arrivalSpeed="0.00" from="-1027" to="379"/>
    <trip id="randUni640:1" type="random" depart="1021.00" departPos="128.51" arrivalPos="135.34" arrivalSpeed="0.00" from="1029" to="1797"/>
    <trip id="randUni698:1" type="random" depart="1042.00" departPos="6.93" arrivalPos="66.10" arrivalSpeed="0.00" from="128" to="613"/>
    <trip id="randUni713:1" type="random" depart="1860.00" departPos="66.96" arrivalPos="68.84" arrivalSpeed="0.00" from="1464" to="-623"/>
    <trip id="randUni239:1" type="random" depart="2124.00" departPos="144.96" arrivalPos="138.40" arrivalSpeed="0.00" from="1345" to="1797"/>
    <trip id="randUni1085:1" type="random" depart="2150.00" departPos="36.31" arrivalPos="184.83" arrivalSpeed="0.00" from="-867" to="-840"/>
    <trip id="randUni896:1" type="random" depart="2184.00" departPos="59.36" arrivalPos="87.52" arrivalSpeed="0.00" from="-1363" to="-1535"/>
    <trip id="randUni567:1" type="random" depart="2268.00" departPos="27.74" arrivalPos="37.51" arrivalSpeed="0.00" from="1363" to="1769"/>
    <trip id="randUni432:1" type="random" depart="3151.00" departPos="87.15" arrivalPos="79.29" arrivalSpeed="0.00" from="1883" to="-623"/>
    <trip id="randUni927:1" type="random" depart="3363.00" departPos="101.84" arrivalPos="7.12" arrivalSpeed="0.00" from="-880" to="-589"/>
    <trip id="randUni877:1" type="random" depart="3701.00" departPos="51.45" arrivalPos="28.95" arrivalSpeed="0.00" from="-623" to="880"/>
    <trip id="randUni942:1" type="random" depart="3847.00" departPos="8.69" arrivalPos="141.60" arrivalSpeed="0.00" from="-585" to="-125"/>
    <trip id="randUni466:1" type="random" depart="3974.00" departPos="61.57" arrivalPos="116.81" arrivalSpeed="0.00" from="1775" to="1391"/>
    <trip id="randUni780:1" type="random" depart="4153.00" departPos="95.78" arrivalPos="70.75" arrivalSpeed="0.00" from="-1524" to="-9"/>
    <trip id="randUni716:1" type="random" depart="4217.00" departPos="48.49" arrivalPos="16.99" arrivalSpeed="0.00" from="-1429" to="-533"/>
    <trip id="randUni344:1" type="random" depart="4240.00" departPos="55.92" arrivalPos="56.49" arrivalSpeed="0.00" from="-123" to="-696"/>
    <trip id="randUni1069:1" type="random" depart="4252.00" departPos="26.66" arrivalPos="48.67" arrivalSpeed="0.00" from="210" to="138"/>
    <trip id="randUni7:1" type="random" depart="4345.00" departPos="89.40" arrivalPos="15.64" arrivalSpeed="0.00" from="-650" to="867"/>
    <trip id="randUni1109:1" type="random" depart="4582.00" departPos="45.35" arrivalPos="10.70" arrivalSpeed="0.00" from="128" to="1033"/>
    <trip id="randUni674:1" type="random" depart="4803.00" departPos="87.15" arrivalPos="27.10" arrivalSpeed="0.00" from="1404" to="846"/>
    <trip id="randUni91:1" type="random" depart="4817.00" departPos="106.29" arrivalPos="36.53" arrivalSpeed="0.00" from="-1767" to="1431"/>
    <trip id="randUni1073:1" type="random" depart="4882.00" departPos="36.14" arrivalPos="112.30" arrivalSpeed="0.00" from="-379" to="730"/>
    <trip id="randUni1013:1" type="random" depart="4925.00" departPos="96.33" arrivalPos="24.99" arrivalSpeed="0.00" from="-361" to="-38"/>
    <trip id="randUni925:1" type="random" depart="5159.00" departPos="55.18" arrivalPos="117.09" arrivalSpeed="0.00" from="876" to="-1342"/>
    <trip id="randUni353:1" type="random" depart="5219.00" departPos="101.01" arrivalPos="101.77" arrivalSpeed="0.00" from="1494" to="-505"/>
    <trip id="randUni343:1" type="random" depart="5243.00" departPos="94.34" arrivalPos="3.99" arrivalSpeed="0.00" from="17" to="-1404"/>
    <trip id="randUni897:1" type="random" depart="5382.00" departPos="77.98" arrivalPos="39.20" arrivalSpeed="0.00" from="597" to="1535"/>
    <trip id="randUni390:1" type="random" depart="5497.00" departPos="50.04" arrivalPos="20.70" arrivalSpeed="0.00" from="-846" to="116"/>
    <trip id="randUni834:1" type="random" depart="5601.00" departPos="24.78" arrivalPos="77.26" arrivalSpeed="0.00" from="-1535" to="-25"/>
    <trip id="randUni365:1" type="random" depart="5643.00" departPos="109.98" arrivalPos="97.06" arrivalSpeed="0.00" from="-325" to="210"/>
    <trip id="randUni61:1" type="random" depart="5671.00" departPos="127.73" arrivalPos="33.01" arrivalSpeed="0.00" from="379" to="-1363"/>
    <trip id="randUni544:1" type="random" depart="5975.00" departPos="96.25" arrivalPos="110.20" arrivalSpeed="0.00" from="625" to="313"/>
    <trip id="randUni956:1" type="random" depart="6045.00" departPos="109.45" arrivalPos="18.93" arrivalSpeed="0.00" from="1517" to="-1526"/>
    <trip id="randUni290:1" type="random" depart="6120.00" departPos="8.89" arrivalPos="143.26" arrivalSpeed="0.00" from="-837" to="-121"/>
    <trip id="randUni607:1" type="random" depart="6238.00" departPos="153.06" arrivalPos="173.83" arrivalSpeed="0.00" from="-639" to="17"/>
    <trip id="randUni321:1" type="random" depart="6537.00" departPos="86.93" arrivalPos="86.44" arrivalSpeed="0.00" from="38" to="325"/>
    <trip id="randUni444:1" type="random" depart="6845.00" departPos="91.72" arrivalPos="159.79" arrivalSpeed="0.00" from="-1767" to="-880"/>
    <trip id="randUni511:1" type="random" depart="7044.00" departPos="21.75" arrivalPos="109.63" arrivalSpeed="0.00" from="1517" to="1771"/>
    <trip id="randUni952:1" type="random" depart="7059.00" departPos="45.95" arrivalPos="97.84" arrivalSpeed="0.00" from="-1427" to="577"/>
    <trip id="randUni681:1" type="random" depart="7465.00" departPos="99.69" arrivalPos="104.53" arrivalSpeed="0.00" from="-123" to="732"/>
    <trip id="randUni912:1" type="random" depart="7484.00" departPos="136.65" arrivalPos="90.24" arrivalSpeed="0.00" from="1027" to="-1493"/>
    <trip id="randUni436:1" type="random" depart="7658.00" departPos="150.89" arrivalPos="54.53" arrivalSpeed="0.00" from="-1494" to="-1373"/>
    <trip id="randUni516:1" type="random" depart="7943.00" departPos="9.37" arrivalPos="21.16" arrivalSpeed="0.00" from="361" to="504"/>
    <trip id="randUni247:1" type="random" depart="8140.00" departPos="18.48" arrivalPos="14.83" arrivalSpeed="0.00" from="-1535" to="333"/>
    <trip id="randUni584:1" type="random" depart="8189.00" departPos="0.49" arrivalPos="48.83" arrivalSpeed="0.00" from="846" to="625"/>
    <trip id="randUni28:1" type="random" depart="8268.00" departPos="6.43" arrivalPos="41.64" arrivalSpeed="0.00" from="1783" to="730"/>
    <trip id="randUni528:1" type="random" depart="8287.00" departPos="176.25" arrivalPos="69.96" arrivalSpeed="0.00" from="330" to="496"/>
    <trip id="randUni388:1" type="random" depart="8409.00" departPos="46.44" arrivalPos="118.71" arrivalSpeed="0.00" from="1345" to="504"/>
    <trip id="randUni212:1" type="random" depart="8657.00" departPos="10.47" arrivalPos="88.34" arrivalSpeed="0.00" from="-1345" to="-618"/>
    <trip id="randUni1001:1" type="random" depart="8694.00" departPos="40.85" arrivalPos="15.22" arrivalSpeed="0.00" from="-1093" to="-138"/>
    <trip id="randUni399:1" type="random" depart="8788.00" departPos="169.23" arrivalPos="39.59" arrivalSpeed="0.00" from="1447" to="-876"/>
    <trip id="randUni721:1" type="random" depart="8790.00" departPos="79.55" arrivalPos="35.49" arrivalSpeed="0.00" from="-614" to="-650"/>
    <trip id="randUni527:1" type="random" depart="8869.00" departPos="56.32" arrivalPos="78.80" arrivalSpeed="0.00" from="517" to="-1499"/>
    <trip id="randUni79:1" type="random" depart="8978.00" departPos="14.13" arrivalPos="50.83" arrivalSpeed="0.00" from="117" to="592"/>
    <trip id="randUni746:1" type="random" depart="8982.00" departPos="62.79" arrivalPos="161.91" arrivalSpeed="0.00" from="-1797" to="1425"/>
    <trip id="randUni540:1" type="random" depart="8995.00" departPos="13.92" arrivalPos="52.54" arrivalSpeed="0.00" from="138" to="-313"/>
    <trip id="randUni689:1" type="random" depart="9033.00" departPos="4.06" arrivalPos="139.20" arrivalSpeed="0.00" from="1523" to="1342"/>
    <trip id="randUni264:1" type="random" depart="9304.00" departPos="126.71" arrivalPos="101.63" arrivalSpeed="0.00" from="1427" to="-1005"/>
    <trip id="randUni419:1" type="random" depart="9327.00" departPos="60.76" arrivalPos="92.07" arrivalSpeed="0.00" from="-1391" to="1493"/>
    <trip id="randUni635:1" type="random" depart="9852.00" departPos="65.54" arrivalPos="24.26" arrivalSpeed="0.00" from="-1517" to="330"/>
    <trip id="randUni675:1" type="random" depart="10028.00" departPos="19.81" arrivalPos="57.39" arrivalSpeed="0.00" from="-336" to="1797"/>
    <trip id="randUni990:1" type="random" depart="10280.00" departPos="103.60" arrivalPos="105.02" arrivalSpeed="0.00" from="-535" to="882"/>
    <trip id="randUni962:1" type="random" depart="10309.00" departPos="16.34" arrivalPos="34.82" arrivalSpeed="0.00" from="-589" to="356"/>
    <trip id="randUni188:1" type="random" depart="10417.00" departPos="89.41" arrivalPos="73.75" arrivalSpeed="0.00" from="614" to="870"/>
    <trip id="randUni565:1" type="random" depart="10492.00" departPos="70.27" arrivalPos="134.30" arrivalSpeed="0.00" from="128" to="505"/>
    <trip id="randUni989:1" type="random" depart="10527.00" departPos="36.64" arrivalPos="173.59" arrivalSpeed="0.00" from="505" to="-504"/>
    <trip id="randUni113:1" type="random" depart="10706.00" departPos="112.34" arrivalPos="11.35" arrivalSpeed="0.00" from="-840" to="618"/>
    <trip id="randUni478:1" type="random" depart="10787.00" departPos="125.35" arrivalPos="111.39" arrivalSpeed="0.00" from="-734" to="1526"/>
    <trip id="randUni777:1" type="random" depart="11000.00" departPos="178.32" arrivalPos="53.26" arrivalSpeed="0.00" from="1447" to="-1535"/>
    <trip id="randUni744:1" type="random" depart="11093.00" departPos="53.76" arrivalPos="17.14" arrivalSpeed="0.00" from="-1882" to="-533"/>
    <trip id="randUni814:1" type="random" depart="11273.00" departPos="110.40" arrivalPos="9.43" arrivalSpeed="0.00" from="-379" to="117"/>
    <trip id="randUni339:1" type="random" depart="11600.00" departPos="20.28" arrivalPos="167.46" arrivalSpeed="0.00" from="-1033" to="880"/>
    <trip id="randUni986:1" type="random" depart="11771.00" departPos="143.43" arrivalPos="4.88" arrivalSpeed="0.00" from="-880" to="313"/>
    <trip id="randUni246:1" type="random" depart="11962.00" departPos="76.78" arrivalPos="99.79" arrivalSpeed="0.00" from="-1323" to="-116"/>
    <trip id="randUni416:1" type="random" depart="12114.00" departPos="150.77" arrivalPos="50.13" arrivalSpeed="0.00" from="608" to="1005"/>
    <trip id="randUni1031:1" type="random" depart="12394.00" departPos="95.06" arrivalPos="129.63" arrivalSpeed="0.00" from="9" to="-1415"/>
    <trip id="randUni286:1" type="random" depart="12604.00" departPos="173.36" arrivalPos="144.25" arrivalSpeed="0.00" from="-25" to="-1441"/>
    <trip id="randUni62:1" type="random" depart="12631.00" departPos="106.39" arrivalPos="174.24" arrivalSpeed="0.00" from="333" to="613"/>
    <trip id="randUni197:1" type="random" depart="12654.00" departPos="19.78" arrivalPos="65.68" arrivalSpeed="0.00" from="-210" to="-1769"/>
    <trip id="randUni115:1" type="random" depart="12791.00" departPos="67.84" arrivalPos="83.92" arrivalSpeed="0.00" from="1027" to="621"/>
    <trip id="randUni202:1" type="random" depart="12856.00" departPos="93.56" arrivalPos="96.37" arrivalSpeed="0.00" from="-570" to="-19"/>
    <trip id="randUni643:1" type="random" depart="12897.00" departPos="62.31" arrivalPos="99.71" arrivalSpeed="0.00" from="-612" to="-3"/>
    <trip id="randUni260:1" type="random" depart="13148.00" departPos="18.70" arrivalPos="23.48" arrivalSpeed="0.00" from="-621" to="-1774"/>
    <trip id="randUni731:1" type="random" depart="13155.00" departPos="55.61" arrivalPos="78.64" arrivalSpeed="0.00" from="9" to="138"/>
    <trip id="randUni900:1" type="random" depart="13228.00" departPos="24.19" arrivalPos="76.15" arrivalSpeed="0.00" from="121" to="-38"/>
    <trip id="randUni630:1" type="random" depart="13256.00" departPos="11.91" arrivalPos="134.32" arrivalSpeed="0.00" from="728" to="880"/>
    <trip id="randUni13:1" type="random" depart="13274.00" departPos="112.21" arrivalPos="111.26" arrivalSpeed="0.00" from="585" to="1769"/>
    <trip id="randUni217:1" type="random" depart="14361.00" departPos="127.22" arrivalPos="28.13" arrivalSpeed="0.00" from="-840" to="336"/>
    <trip id="randUni800:1" type="random" depart="14470.00" departPos="66.54" arrivalPos="17.73" arrivalSpeed="0.00" from="613" to="210"/>
    <trip id="randUni600:1" type="random" depart="14492.00" departPos="55.49" arrivalPos="35.91" arrivalSpeed="0.00" from="383" to="325"/>
    <trip id="randUni331:1" type="random" depart="14536.00" departPos="155.08" arrivalPos="96.46" arrivalSpeed="0.00" from="-867" to="-579"/>
    <trip id="randUni46:1" type="random" depart="14567.00" departPos="192.61" arrivalPos="41.18" arrivalSpeed="0.00" from="1323" to="-332"/>
    <trip id="randUni1063:1" type="random" depart="14591.00" departPos="75.09" arrivalPos="121.58" arrivalSpeed="0.00" from="1882" to="-1767"/>
    <trip id="randUni819:1" type="random" depart="14681.00" departPos="73.09" arrivalPos="97.98" arrivalSpeed="0.00" from="1493" to="533"/>
    <trip id="randUni522:1" type="random" depart="14701.00" departPos="110.80" arrivalPos="122.43" arrivalSpeed="0.00" from="684" to="1345"/>
    <trip id="randUni1036:1" type="random" depart="14915.00" departPos="84.30" arrivalPos="28.10" arrivalSpeed="0.00" from="1523" to="880"/>
    <trip id="randUni295:1" type="random" depart="14932.00" departPos="108.39" arrivalPos="23.75" arrivalSpeed="0.00" from="-492" to="-730"/>
    <trip id="randUni965:1" type="random" depart="14949.00" departPos="176.78" arrivalPos="36.75" arrivalSpeed="0.00" from="-365" to="880"/>
    <trip id="randUni639:1" type="random" depart="15090.00" departPos="37.52" arrivalPos="180.06" arrivalSpeed="0.00" from="623" to="1775"/>
    <trip id="randUni240:1" type="random" depart="15333.00" departPos="24.54" arrivalPos="26.79" arrivalSpeed="0.00" from="356" to="1769"/>
    <trip id="randUni234:1" type="random" depart="15434.00" departPos="53.53" arrivalPos="36.20" arrivalSpeed="0.00" from="734" to="1501"/>
    <trip id="randUni243:1" type="random" depart="15505.00" departPos="70.18" arrivalPos="29.19" arrivalSpeed="0.00" from="-13" to="1526"/>
    <trip id="randUni489:1" type="random" depart="15578.00" departPos="61.02" arrivalPos="29.88" arrivalSpeed="0.00" from="-846" to="-9"/>
    <trip id="randUni398:1" type="random" depart="15732.00" departPos="133.56" arrivalPos="56.01" arrivalSpeed="0.00" from="-601" to="336"/>
    <trip id="randUni96:1" type="random" depart="15851.00" departPos="14.32" arrivalPos="103.69" arrivalSpeed="0.00" from="1883" to="-1494"/>
    <trip id="randUni868:1" type="random" depart="15975.00" departPos="171.59" arrivalPos="127.84" arrivalSpeed="0.00" from="-1532" to="1404"/>
    <trip id="randUni10:1" type="random" depart="16184.00" departPos="63.45" arrivalPos="39.12" arrivalSpeed="0.00" from="-1464" to="1532"/>
    <trip id="randUni44:1" type="random" depart="16332.00" departPos="132.08" arrivalPos="49.69" arrivalSpeed="0.00" from="840" to="876"/>
    <trip id="randUni68:1" type="random" depart="16601.00" departPos="109.32" arrivalPos="23.14" arrivalSpeed="0.00" from="356" to="1773"/>
    <trip id="randUni33:1" type="random" depart="17025.00" departPos="16.67" arrivalPos="31.78" arrivalSpeed="0.00" from="1464" to="-696"/>
    <trip id="randUni752:1" type="random" depart="17897.00" departPos="151.80" arrivalPos="33.44" arrivalSpeed="0.00" from="-492" to="383"/>
    <trip id="randUni405:1" type="random" depart="17900.00" departPos="23.57" arrivalPos="69.09" arrivalSpeed="0.00" from="7" to="-679"/>
    <trip id="randUni791:1" type="random" depart="17932.00" departPos="41.52" arrivalPos="17.45" arrivalSpeed="0.00" from="-1011" to="-1773"/>
    <trip id="randUni857:1" type="random" depart="18153.00" departPos="155.14" arrivalPos="156.74" arrivalSpeed="0.00" from="1027" to="1027"/>
    <trip id="randUni710:1" type="random" depart="18516.00" departPos="136.40" arrivalPos="71.28" arrivalSpeed="0.00" from="-1373" to="1427"/>
    <trip id="randUni413:1" type="random" depart="18647.00" departPos="134.21" arrivalPos="82.98" arrivalSpeed="0.00" from="686" to="-138"/>
    <trip id="randUni21:1" type="random" depart="18819.00" departPos="47.93" arrivalPos="1.81" arrivalSpeed="0.00" from="-123" to="-1005"/>
    <trip id="randUni349:1" type="random" depart="18830.00" departPos="156.37" arrivalPos="68.40" arrivalSpeed="0.00" from="-1447" to="-1494"/>
    <trip id="randUni669:1" type="random" depart="18951.00" departPos="41.15" arrivalPos="12.89" arrivalSpeed="0.00" from="-349" to="577"/>
    <trip id="randUni460:1" type="random" depart="19252.00" departPos="16.90" arrivalPos="57.46" arrivalSpeed="0.00" from="-326" to="-325"/>
    <trip id="randUni206:1" type="random" depart="19253.00" departPos="76.24" arrivalPos="95.91" arrivalSpeed="0.00" from="-25" to="592"/>
    <trip id="randUni222:1" type="random" depart="19437.00" departPos="90.02" arrivalPos="124.03" arrivalSpeed="0.00" from="1535" to="1532"/>
    <trip id="randUni701:1" type="random" depart="19477.00" departPos="185.60" arrivalPos="121.15" arrivalSpeed="0.00" from="880" to="123"/>
    <trip id="randUni563:1" type="random" depart="19524.00" departPos="147.19" arrivalPos="3.57" arrivalSpeed="0.00" from="126" to="-876"/>
    <trip id="randUni371:1" type="random" depart="19526.00" departPos="146.80" arrivalPos="171.74" arrivalSpeed="0.00" from="-121" to="1494"/>
    <trip id="randUni297:1" type="random" depart="19594.00" departPos="84.51" arrivalPos="49.73" arrivalSpeed="0.00" from="365" to="876"/>
    <trip id="randUni105:1" type="random" depart="19740.00" departPos="81.97" arrivalPos="83.80" arrivalSpeed="0.00" from="-210" to="592"/>
    <trip id="randUni309:1" type="random" depart="19828.00" departPos="97.33" arrivalPos="93.75" arrivalSpeed="0.00" from="642" to="1532"/>
    <trip id="randUni325:1" type="random" depart="20006.00" departPos="100.52" arrivalPos="3.50" arrivalSpeed="0.00" from="-138" to="579"/>
    <trip id="randUni936:1" type="random" depart="20225.00" departPos="18.79" arrivalPos="46.85" arrivalSpeed="0.00" from="-1357" to="608"/>
    <trip id="randUni391:1" type="random" depart="20535.00" departPos="43.66" arrivalPos="74.18" arrivalSpeed="0.00" from="-325" to="117"/>
    <trip id="randUni761:1" type="random" depart="20681.00" departPos="106.58" arrivalPos="42.47" arrivalSpeed="0.00" from="348" to="1391"/>
    <trip id="randUni39:1" type="random" depart="20745.00" departPos="82.08" arrivalPos="91.32" arrivalSpeed="0.00" from="650" to="-730"/>
    <trip id="randUni475:1" type="random" depart="20782.00" departPos="11.42" arrivalPos="76.14" arrivalSpeed="0.00" from="-1033" to="313"/>
    <trip id="randUni821:1" type="random" depart="20914.00" departPos="41.68" arrivalPos="156.22" arrivalSpeed="0.00" from="-356" to="125"/>
    <trip id="randUni651:1" type="random" depart="21071.00" departPos="73.96" arrivalPos="81.57" arrivalSpeed="0.00" from="356" to="-338"/>
    <trip id="randUni1118:1" type="random" depart="21148.00" departPos="130.90" arrivalPos="57.62" arrivalSpeed="0.00" from="1201" to="612"/>
    <trip id="randUni64:1" type="random" depart="21671.00" departPos="47.97" arrivalPos="85.01" arrivalSpeed="0.00" from="379" to="-1464"/>
    <trip id="randUni999:1" type="random" depart="21718.00" departPos="53.91" arrivalPos="28.24" arrivalSpeed="0.00" from="-1535" to="1388"/>
    <trip id="randUni892:1" type="random" depart="21856.00" departPos="51.43" arrivalPos="80.05" arrivalSpeed="0.00" from="-1404" to="-1005"/>
    <trip id="randUni815:1" type="random" depart="21873.00" departPos="37.63" arrivalPos="147.04" arrivalSpeed="0.00" from="585" to="-650"/>
    <trip id="randUni1106:1" type="random" depart="22145.00" departPos="116.71" arrivalPos="180.06" arrivalSpeed="0.00" from="-1771" to="-1532"/>
    <trip id="randUni396:1" type="random" depart="22168.00" departPos="38.47" arrivalPos="15.47" arrivalSpeed="0.00" from="1404" to="597"/>
    <trip id="randUni470:1" type="random" depart="22269.00" departPos="16.94" arrivalPos="95.88" arrivalSpeed="0.00" from="-381" to="333"/>
    <trip id="randUni317:1" type="random" depart="22432.00" departPos="87.97" arrivalPos="180.41" arrivalSpeed="0.00" from="-732" to="-17"/>
    <trip id="randUni298:1" type="random" depart="22715.00" departPos="94.30" arrivalPos="12.61" arrivalSpeed="0.00" from="356" to="-608"/>
    <trip id="randUni29:1" type="random" depart="22887.00" departPos="38.82" arrivalPos="92.16" arrivalSpeed="0.00" from="625" to="-533"/>
    <trip id="randUni974:1" type="random" depart="22928.00" departPos="84.02" arrivalPos="90.73" arrivalSpeed="0.00" from="1533" to="-1029"/>
    <trip id="randUni541:1" type="random" depart="23024.00" departPos="33.89" arrivalPos="30.69" arrivalSpeed="0.00" from="381" to="-1388"/>
    <trip id="randUni397:1" type="random" depart="23025.00" departPos="103.53" arrivalPos="34.32" arrivalSpeed="0.00" from="-1891" to="-1535"/>
    <trip id="randUni238:1" type="random" depart="23235.00" departPos="138.71" arrivalPos="24.91" arrivalSpeed="0.00" from="-11" to="38"/>
    <trip id="randUni99:1" type="random" depart="23518.00" departPos="71.33" arrivalPos="90.69" arrivalSpeed="0.00" from="-1783" to="-333"/>
    <trip id="randUni1028:1" type="random" depart="23523.00" departPos="51.23" arrivalPos="121.81" arrivalSpeed="0.00" from="-621" to="867"/>
    <trip id="randUni1026:1" type="random" depart="23630.00" departPos="102.89" arrivalPos="3.91" arrivalSpeed="0.00" from="-1797" to="123"/>
    <trip id="randUni1079:1" type="random" depart="23949.00" departPos="76.01" arrivalPos="74.80" arrivalSpeed="0.00" from="-612" to="-1343"/>
    <trip id="randUni767:1" type="random" depart="24064.00" departPos="56.51" arrivalPos="90.45" arrivalSpeed="0.00" from="-505" to="618"/>
    <trip id="randUni228:1" type="random" depart="24322.00" departPos="73.48" arrivalPos="81.24" arrivalSpeed="0.00" from="-326" to="-332"/>
    <trip id="randUni670:1" type="random" depart="24772.00" departPos="166.34" arrivalPos="31.72" arrivalSpeed="0.00" from="-9" to="344"/>
    <trip id="randUni907:1" type="random" depart="24910.00" departPos="28.06" arrivalPos="157.49" arrivalSpeed="0.00" from="679" to="-1767"/>
    <trip id="randUni759:1" type="random" depart="25051.00" departPos="28.23" arrivalPos="62.25" arrivalSpeed="0.00" from="533" to="319"/>
    <trip id="randUni1115:1" type="random" depart="25176.00" departPos="45.62" arrivalPos="21.57" arrivalSpeed="0.00" from="-1093" to="728"/>
    <trip id="randUni959:1" type="random" depart="25229.00" departPos="128.03" arrivalPos="97.47" arrivalSpeed="0.00" from="-11" to="-846"/>
    <trip id="randUni634:1" type="random" depart="25302.00" departPos="79.08" arrivalPos="63.76" arrivalSpeed="0.00" from="356" to="621"/>
    <trip id="randUni1099:1" type="random" depart="25344.00" departPos="167.78" arrivalPos="105.98" arrivalSpeed="0.00" from="-867" to="730"/>
    <trip id="randUni11:1" type="random" depart="25698.00" departPos="37.61" arrivalPos="84.54" arrivalSpeed="0.00" from="-1005" to="333"/>
    <trip id="randUni18:1" type="random" depart="25700.00" departPos="71.52" arrivalPos="37.19" arrivalSpeed="0.00" from="1493" to="-128"/>
    <trip id="randUni488:1" type="random" depart="26069.00" departPos="150.73" arrivalPos="127.28" arrivalSpeed="0.00" from="-867" to="1532"/>
    <trip id="randUni970:1" type="random" depart="26175.00" departPos="68.04" arrivalPos="73.48" arrivalSpeed="0.00" from="1494" to="325"/>
    <trip id="randUni296:1" type="random" depart="26188.00" departPos="94.02" arrivalPos="5.94" arrivalSpeed="0.00" from="-1342" to="-579"/>
    <trip id="randUni363:1" type="random" depart="26634.00" departPos="91.45" arrivalPos="118.73" arrivalSpeed="0.00" from="-732" to="-333"/>
    <trip id="randUni302:1" type="random" depart="26863.00" departPos="96.04" arrivalPos="106.79" arrivalSpeed="0.00" from="1774" to="-1882"/>
    <trip id="randUni106:1" type="random" depart="27259.00" departPos="91.61" arrivalPos="134.53" arrivalSpeed="0.00" from="-344" to="-1882"/>
    <trip id="randUni808:1" type="random" depart="27366.00" departPos="33.81" arrivalPos="29.89" arrivalSpeed="0.00" from="-1323" to="650"/>
    <trip id="randUni493:1" type="random" depart="27372.00" departPos="41.04" arrivalPos="72.94" arrivalSpeed="0.00" from="-625" to="-592"/>
    <trip id="randUni1092:1" type="random" depart="27485.00" departPos="135.40" arrivalPos="132.65" arrivalSpeed="0.00" from="-1533" to="-1011"/>
    <trip id="randUni216:1" type="random" depart="27954.00" departPos="123.89" arrivalPos="9.63" arrivalSpeed="0.00" from="1388" to="1029"/>
    <trip id="randUni1067:1" type="random" depart="28163.00" departPos="38.33" arrivalPos="138.11" arrivalSpeed="0.00" from="1027" to="-880"/>
    <trip id="randUni1096:1" type="random" depart="28236.00" departPos="140.94" arrivalPos="138.75" arrivalSpeed="0.00" from="-579" to="1057"/>
    <trip id="randUni954:1" type="random" depart="28268.00" departPos="30.47" arrivalPos="93.48" arrivalSpeed="0.00" from="-332" to="338"/>
    <trip id="randUni146:1" type="random" depart="28321.00" departPos="137.83" arrivalPos="87.80" arrivalSpeed="0.00" from="-1783" to="-1524"/>
    <trip id="randUni556:1" type="random" depart="28498.00" departPos="95.73" arrivalPos="19.65" arrivalSpeed="0.00" from="-1771" to="-1343"/>
    <trip id="randUni1000:1" type="random" depart="28522.00" departPos="82.74" arrivalPos="176.41" arrivalSpeed="0.00" from="-9" to="-840"/>
    <trip id="randUni450:1" type="random" depart="28931.00" departPos="62.67" arrivalPos="32.02" arrivalSpeed="0.00" from="1773" to="1798"/>
    <trip id="randUni935:1" type="random" depart="29156.00" departPos="149.93" arrivalPos="128.56" arrivalSpeed="0.00" from="867" to="-618"/>
    <trip id="randUni431:1" type="random" depart="29303.00" departPos="111.14" arrivalPos="144.27" arrivalSpeed="0.00" from="-1343" to="-505"/>
    <trip id="randUni271:1" type="random" depart="29322.00" departPos="58.13" arrivalPos="34.77" arrivalSpeed="0.00" from="-686" to="-1391"/>
    <trip id="randUni142:1" type="random" depart="29352.00" departPos="189.93" arrivalPos="96.41" arrivalSpeed="0.00" from="-1359" to="-361"/>
    <trip id="randUni776:1" type="random" depart="29371.00" departPos="113.20" arrivalPos="84.40" arrivalSpeed="0.00" from="-1533" to="-338"/>
    <trip id="randUni471:1" type="random" depart="29663.00" departPos="1.79" arrivalPos="82.49" arrivalSpeed="0.00" from="1388" to="-1773"/>
    <trip id="h114c1:1" type="default" depart="29726.00" departPos="167.11" arrivalPos="1.00" arrivalSpeed="0.00" from="-1425" to="-1464"/>
    <trip id="h901c1:1" type="default" depart="29765.00" departPos="0.91" arrivalPos="1.00" arrivalSpeed="0.00" from="621" to="-330"/>
    <trip id="randUni284:1" type="random" depart="29768.00" departPos="62.73" arrivalPos="104.32" arrivalSpeed="0.00" from="1532" to="-698"/>
    <trip id="randUni461:1" type="random" depart="29810.00" departPos="22.01" arrivalPos="23.49" arrivalSpeed="0.00" from="639" to="-1005"/>
    <trip id="h918c1:1" type="default" depart="29812.00" departPos="7.42" arrivalPos="69.30" arrivalSpeed="0.00" from="64" to="-569"/>
    <trip id="randUni736:1" type="random" depart="29821.00" departPos="34.72" arrivalPos="41.36" arrivalSpeed="0.00" from="-326" to="837"/>
    <trip id="h121c2:1" type="default" depart="29895.00" departPos="42.76" arrivalPos="280.00" arrivalSpeed="0.00" from="-1427" to="-867"/>
    <trip id="h132c1:1" type="default" depart="29895.00" departPos="110.62" arrivalPos="126.59" arrivalSpeed="0.00" from="-1441" to="882"/>
    <trip id="h907c2:1" type="default" depart="29911.00" departPos="110.57" arrivalPos="194.29" arrivalSpeed="0.00" from="623" to="1775"/>
    <trip id="h510c1:1" type="default" depart="29997.00" departPos="129.71" arrivalPos="8.54" arrivalSpeed="0.00" from="1011" to="338"/>
    <trip id="h128c1:1" type="default" depart="30038.00" departPos="82.83" arrivalPos="158.18" arrivalSpeed="0.00" from="-1431" to="504"/>
    <trip id="h720c1:1" type="default" depart="30058.00" departPos="10.04" arrivalPos="10.04" arrivalSpeed="0.00" from="1773" via="-1345" to="1773"/>
    <trip id="randUni671:1" type="random" depart="30069.00" departPos="114.22" arrivalPos="100.31" arrivalSpeed="0.00" from="121" to="698"/>